*KEYWORD_ID
DED
*PARAMETER
Rboltz    5.6704E-14
*PARAMETER
Rambient       300.0
*PARAMETER
Rabszero         0.0
*TOOL_FILE
toolpath_off.crs
*GAUSS_LASER
250.0 0.5 0.4
*SCALAR_OUT
temp
solid_rate
theta_hist
nid_true
*CONTROL_TERMINATION
$$  ENDTIM    ENDCYC     DTMIN    ENDENG    ENDMAS
   20.0
*CONTROL_TIMESTEP
$$  DTINIT    TSSFAC      ISDO    TSLIMT     DT2MS      LCTM     EROD       E     MSIST
    5.0E-4       1.0
*CONTROL_SOLUTION
$$    SOLN
         0
*DATABASE_NODOUT
$$      DT    BINARY      LCUR      IOPT      DTHF     BINHF
    10.000         0
*MAT_THERMAL_GRADED_TD
$HMNAME MATS     201GRADED_IN718proxyIN625_1018proxySS316
        201   0.00819   1533.0   1609.0   270.0   0.00787   1693.0   1733.0   270.0
../0_properties/IN718_cp.txt
../0_properties/IN718_cond.txt
../data/materials/1018_cp.txt
../data/materials/1018_cond.txt
*PART
$HWCOLOR COMPS     201       5
Imported_Part_Graded_Rowan_Composition
        201         0       201
*EXTERNAL_MESH
sol_100.vtu       201
*LOAD_NODE_SET
$HMNAME LOADCOLS       1LoadNode_1
$	 Radiation
         2         4                 0.2
$	 convection
         2         3             0.00002
*ELEMENT_COMPOSITION
       201
          0.97170842                   1
          0.96944249                   2
          0.96908128                   3
          0.98574913                   4
          0.98618346                   5
          0.97266740                   6
          0.98644388                   7
          0.98658800                   8
          0.97311616                   9
          0.97344249                  10
          0.97373849                  11
          0.97399276                  12
          0.97422993                  13
          0.97446597                  14
          0.97468531                  15
          0.97488135                  16
          0.97506475                  17
          0.97525781                  18
          0.97543144                  19
$ ... 50317 like lines cut
*END
