*KEYWORD_ID
DED
*PARAMETER
Rboltz    5.6704E-14
*PARAMETER
Rambient       300.0
*PARAMETER
Rabszero         0.0
*TOOL_FILE
toolpath.crs
*GAUSS_LASER
250.0 0.5 0.4
*SCALAR_OUT
temp
solid_rate
theta_hist
nid_true
*CONTROL_TERMINATION
$$  ENDTIM    ENDCYC     DTMIN    ENDENG    ENDMAS
   39.1
*CONTROL_TIMESTEP
$$  DTINIT    TSSFAC      ISDO    TSLIMT     DT2MS      LCTM     EROD       E     MSIST
    5.0E-4       1.0
*CONTROL_SOLUTION
$$    SOLN
         0
*DATABASE_NODOUT
$$      DT    BINARY      LCUR      IOPT      DTHF     BINHF
    10.000         0
*MAT_THERMAL_ISOTROPIC_TD
$HMNAME MATS       1MATT1_1
         1   0.00819   1533   1609     270
../0_properties/IN718_cp.txt
../0_properties/IN718_cond.txt
*MAT_THERMAL_ISOTROPIC_TD
$HMNAME MATS       2MATT1_2
         2   0.00440   1878   1928     286
../0_properties/TI64_cp.txt
../0_properties/TI64_cond.txt
*PART
$HWCOLOR COMPS       1       3
Substrate
         1         0         1
$HWCOLOR COMPS       2       4
Build
         2         0         2
*LOAD_NODE_SET
$HMNAME LOADCOLS       1LoadNode_1
         3         1               300.0
$	 moving flux
         2         5                 0.0
$	 Radiation
         2         4                 0.2
$	 convection
         2         3             0.00002
*INITIAL_TEMPERATURE_SET
$HMNAME LOADCOLS       1InitialTemp_1
$HWCOLOR LOADCOLS       1       3
         1     300.0
*DEFINE_CURVE
         1                 1.0       1.0
          0.10000000        188.00000000
          0.10000000        189.00000000
          0.10000000        190.00000000
          0.10000000        191.00000000
          0.10000000        192.00000000
          0.10000000        193.00000000
          0.10000000        187.00000000
          0.10000000        197.00000000
          0.10000000        184.00000000
          0.10000000        196.00000000
          0.10000000        195.00000000
          0.10000000        194.00000000
          0.10000000        200.00000000
          0.10000000        186.00000000
          0.10000000        185.00000000
          0.10000000        198.00000000
          0.10000000        199.00000000
          0.10000000        183.00000000
          0.10000000        182.00000000
$ ... 13981 like lines cut
*NODE
$#   nid               x               y               z      tc      rc
       1       -7.000000       -0.500000        4.000000       0       0
       2       -7.000000        0.500000        4.000000       0       0
       3       -7.000000        0.500000        0.000000       0       0
       4       -7.000000       -0.500000        0.000000       0       0
       5        7.000000        0.500000        4.000000       0       0
       6        7.000000        0.500000        0.000000       0       0
       7        7.000000       -0.500000        0.000000       0       0
       8        7.000000       -0.500000        4.000000       0       0
       9       -8.000000        1.500000        0.000000       0       0
      10       -8.000000       -1.500000        0.000000       0       0
      11        8.000000       -1.500000        0.000000       0       0
      12        8.000000        1.500000        0.000000       0       0
      13        8.000000       -1.500000       -4.000000       0       0
      14       -8.000000       -1.500000       -4.000000       0       0
      15       -8.000000        1.500000       -4.000000       0       0
      16        8.000000        1.500000       -4.000000       0       0
      17       -7.000000       -0.300000        4.000000       0       0
      18       -7.000000       -0.100000        4.000000       0       0
      19       -7.000000        0.100000        4.000000       0       0
      20       -7.000000        0.300000        4.000000       0       0
$ ... 23229 like lines cut
*ELEMENT_SOLID
$#   eid     pid      n1      n2      n3      n4      n5      n6      n7      n8
       1       1     326    6331    8451     949       1      17     637     102
       2       1    6331    6332    8452    8451      17      18     638     637
       3       1    6332    6333    8453    8452      18      19     639     638
       4       1    6333    6334    8454    8453      19      20     640     639
       5       1    6334     396    3640    8454      20       2      21     640
       6       1     949    8451    8455     950     102     637     641     101
       7       1    8451    8452    8456    8455     637     638     642     641
       8       1    8452    8453    8457    8456     638     639     643     642
       9       1    8453    8454    8458    8457     639     640     644     643
      10       1    8454    3640    3641    8458     640      21      22     644
      11       1     950    8455    8459     951     101     641     645     100
      12       1    8455    8456    8460    8459     641     642     646     645
      13       1    8456    8457    8461    8460     642     643     647     646
      14       1    8457    8458    8462    8461     643     644     648     647
      15       1    8458    3641    3642    8462     644      22      23     648
      16       1     951    8459    8463     952     100     645     649      99
      17       1    8459    8460    8464    8463     645     646     650     649
      18       1    8460    8461    8465    8464     646     647     651     650
      19       1    8461    8462    8466    8465     647     648     652     651
      20       1    8462    3642    3643    8466     648      23      24     652
$ ... 19056 like lines cut
*SET_NODE_LIST
$#     sid       da1       da2       da3       da4    solver
         1
$#    nid1      nid2      nid3      nid4      nid5      nid6      nid7      nid8
         1         2         3         4         5         6         7         8
         9        10        11        12        13        14        15        16
        17        18        19        20        21        22        23        24
        25        26        27        28        29        30        31        32
        33        34        35        36        37        38        39        40
        41        42        43        44        45        46        47        48
        49        50        51        52        53        54        55        56
        57        58        59        60        61        62        63        64
        65        66        67        68        69        70        71        72
        73        74        75        76        77        78        79        80
        81        82        83        84        85        86        87        88
        89        90        91        92        93        94        95        96
        97        98        99       100       101       102       103       104
       105       106       107       108       109       110       111       112
       113       114       115       116       117       118       119       120
       121       122       123       124       125       126       127       128
       129       130       131       132       133       134       135       136
       137       138       139       140       141       142       143       144
       145       146       147       148       149       150       151       152
       153       154       155       156       157       158       159       160
$ ... 2887 like lines cut
*SET_NODE_LIST
$#     sid       da1       da2       da3       da4    solver
         2
$#    nid1      nid2      nid3      nid4      nid5      nid6      nid7      nid8
         1         2         3         4         5         6         7         8
         9        10        11        12        17        18        19        20
        21        22        23        24        25        26        27        28
        29        30        31        32        33        34        35        36
        37        38        39        40        41        42        43        44
        45        46        47        48        49        50        51        52
        53        54        55        56        57        58        59        60
        61        62        63        64        65        66        67        68
        69        70        71        72        73        74        75        76
        77        78        79        80        81        82        83        84
        85        86        87        88        89        90        91        92
        93        94        95        96        97        98        99       100
       101       102       103       104       105       106       107       108
       109       110       111       112       113       114       115       116
       117       118       119       120       121       122       123       124
       125       126       127       128       129       130       131       132
       133       134       135       136       137       138       139       140
       141       142       143       144       145       146       147       148
       149       150       151       152       153       154       155       156
       157       158       159       160       161       162       163       164
$ ... 2221 like lines cut
*SET_NODE_LIST
$#     sid       da1       da2       da3       da4    solver
         3
$#    nid1      nid2      nid3      nid4      nid5      nid6      nid7      nid8
        13        14        15        16       561       562       563       564
       565       566       567       568       569       570       571       572
       573       574       575       576       577       578       579       580
       581       582       583       584       585       586       587       588
       589       590       591       592       593       594       595       596
       597       598       599       600       601       602       603       604
       605       606       607       608       609       610       611       612
       613       614       615       616       617       618       619       620
       621       622       623       624       625       626       627       628
       629       630       631       632       633       634       635       636
      7264      7265      7266      7267      7268      7269      7270      7271
      7272      7273      7274      7275      7276      7277      7278      7279
      7280      7281      7282      7283      7284      7285      7286      7287
      7288      7289      7290      7291      7292      7293      7294      7295
      7296      7297      7298      7299      7300      7301      7302      7303
      7304      7305      7306      7307      7308      7309      7310      7311
      7312      7313      7314      7315      7316      7317      7318      7319
      7320      7321      7322      7323      7324      7325      7326      7327
      7328      7329      7330      7331      7332      7333      7334      7335
      7336      7337      7338      7339      7340      7341      7342      7343
$ ... 91 like lines cut
*SET_SOLID
$#     sid    solver
         1MECH
$#      k1        k2        k3        k4        k5        k6        k7        k8
         1         2         3         4         5         6         7         8
         9        10        11        12        13        14        15        16
        17        18        19        20        21        22        23        24
        25        26        27        28        29        30        31        32
        33        34        35        36        37        38        39        40
        41        42        43        44        45        46        47        48
        49        50        51        52        53        54        55        56
        57        58        59        60        61        62        63        64
        65        66        67        68        69        70        71        72
        73        74        75        76        77        78        79        80
        81        82        83        84        85        86        87        88
        89        90        91        92        93        94        95        96
        97        98        99       100       101       102       103       104
       105       106       107       108       109       110       111       112
       113       114       115       116       117       118       119       120
       121       122       123       124       125       126       127       128
       129       130       131       132       133       134       135       136
       137       138       139       140       141       142       143       144
       145       146       147       148       149       150       151       152
       153       154       155       156       157       158       159       160
$ ... 1730 like lines cut

*SET_SOLID
$#     sid    solver
         2MECH
$#      k1        k2        k3        k4        k5        k6        k7        k8
     14001     14002     14003     14004     14005     14006     14007     14008
     14009     14010     14011     14012     14013     14014     14015     14016
     14017     14018     14019     14020     14021     14022     14023     14024
     14025     14026     14027     14028     14029     14030     14031     14032
     14033     14034     14035     14036     14037     14038     14039     14040
     14041     14042     14043     14044     14045     14046     14047     14048
     14049     14050     14051     14052     14053     14054     14055     14056
     14057     14058     14059     14060     14061     14062     14063     14064
     14065     14066     14067     14068     14069     14070     14071     14072
     14073     14074     14075     14076     14077     14078     14079     14080
     14081     14082     14083     14084     14085     14086     14087     14088
     14089     14090     14091     14092     14093     14094     14095     14096
     14097     14098     14099     14100     14101     14102     14103     14104
     14105     14106     14107     14108     14109     14110     14111     14112
     14113     14114     14115     14116     14117     14118     14119     14120
     14121     14122     14123     14124     14125     14126     14127     14128
     14129     14130     14131     14132     14133     14134     14135     14136
     14137     14138     14139     14140     14141     14142     14143     14144
     14145     14146     14147     14148     14149     14150     14151     14152
     14153     14154     14155     14156     14157     14158     14159     14160
$ ... 615 like lines cut
*END