*KEYWORD_ID
DED
*PARAMETER
Rboltz    5.6704E-14
*PARAMETER
Rambient       300.0
*PARAMETER
Rabszero         0.0
*TOOL_FILE
toolpath.crs
*GAUSS_LASER
250.0 0.5 0.4
*SCALAR_OUT
temp
solid_rate
theta_hist
nid_true
*CONTROL_TERMINATION
$$  ENDTIM    ENDCYC     DTMIN    ENDENG    ENDMAS
   39.1
*CONTROL_TIMESTEP
$$  DTINIT    TSSFAC      ISDO    TSLIMT     DT2MS      LCTM     EROD       E     MSIST
    5.0E-4       1.0
*CONTROL_SOLUTION
$$    SOLN
         0
*DATABASE_NODOUT
$$      DT    BINARY      LCUR      IOPT      DTHF     BINHF
    10.000         0
*MAT_THERMAL_ISOTROPIC_TD
$HMNAME MATS       1MATT1_1
         1   0.00440   1878   1928   286
../0_properties/TI64_cp.txt
../0_properties/TI64_cond.txt
*MAT_THERMAL_ISOTROPIC_TD
$HMNAME MATS        2MATT1_2
          2   0.00440   1878.0   1928.0   286.0
../0_properties/graded_wall/grad_00_cp.txt
../0_properties/graded_wall/grad_00_cond.txt
*MAT_THERMAL_ISOTROPIC_TD
$HMNAME MATS        3MATT1_3
          3   0.00445   1873.0   1923.4   285.8
../0_properties/graded_wall/grad_01_cp.txt
../0_properties/graded_wall/grad_01_cond.txt
*MAT_THERMAL_ISOTROPIC_TD
$HMNAME MATS        4MATT1_4
          4   0.00451   1868.0   1918.8   285.5
../0_properties/graded_wall/grad_02_cp.txt
../0_properties/graded_wall/grad_02_cond.txt
*MAT_THERMAL_ISOTROPIC_TD
$HMNAME MATS        5MATT1_5
          5   0.00456   1863.0   1914.1   285.3
../0_properties/graded_wall/grad_03_cp.txt
../0_properties/graded_wall/grad_03_cond.txt
*MAT_THERMAL_ISOTROPIC_TD
$HMNAME MATS        6MATT1_6
          6   0.00462   1858.0   1909.5   285.1
../0_properties/graded_wall/grad_04_cp.txt
../0_properties/graded_wall/grad_04_cond.txt
*MAT_THERMAL_ISOTROPIC_TD
$HMNAME MATS        7MATT1_7
          7   0.00467   1853.0   1904.9   284.8
../0_properties/graded_wall/grad_05_cp.txt
../0_properties/graded_wall/grad_05_cond.txt
*MAT_THERMAL_ISOTROPIC_TD
$HMNAME MATS        8MATT1_8
          8   0.00473   1848.0   1900.3   284.6
../0_properties/graded_wall/grad_06_cp.txt
../0_properties/graded_wall/grad_06_cond.txt
*MAT_THERMAL_ISOTROPIC_TD
$HMNAME MATS        9MATT1_9
          9   0.00478   1843.0   1895.6   284.4
../0_properties/graded_wall/grad_07_cp.txt
../0_properties/graded_wall/grad_07_cond.txt
*MAT_THERMAL_ISOTROPIC_TD
$HMNAME MATS       10MATT1_10
         10   0.00484   1838.0   1891.0   284.1
../0_properties/graded_wall/grad_08_cp.txt
../0_properties/graded_wall/grad_08_cond.txt
*MAT_THERMAL_ISOTROPIC_TD
$HMNAME MATS       11MATT1_11
         11   0.00489   1833.0   1886.4   283.9
../0_properties/graded_wall/grad_09_cp.txt
../0_properties/graded_wall/grad_09_cond.txt
*MAT_THERMAL_ISOTROPIC_TD
$HMNAME MATS       12MATT1_12
         12   0.00495   1828.0   1881.8   283.7
../0_properties/graded_wall/grad_10_cp.txt
../0_properties/graded_wall/grad_10_cond.txt
*MAT_THERMAL_ISOTROPIC_TD
$HMNAME MATS       13MATT1_13
         13   0.00500   1823.0   1877.1   283.4
../0_properties/graded_wall/grad_11_cp.txt
../0_properties/graded_wall/grad_11_cond.txt
*MAT_THERMAL_ISOTROPIC_TD
$HMNAME MATS       14MATT1_14
         14   0.00506   1818.0   1872.5   283.2
../0_properties/graded_wall/grad_12_cp.txt
../0_properties/graded_wall/grad_12_cond.txt
*MAT_THERMAL_ISOTROPIC_TD
$HMNAME MATS       15MATT1_15
         15   0.00511   1813.0   1867.9   283.0
../0_properties/graded_wall/grad_13_cp.txt
../0_properties/graded_wall/grad_13_cond.txt
*MAT_THERMAL_ISOTROPIC_TD
$HMNAME MATS       16MATT1_16
         16   0.00517   1808.0   1863.3   282.8
../0_properties/graded_wall/grad_14_cp.txt
../0_properties/graded_wall/grad_14_cond.txt
*MAT_THERMAL_ISOTROPIC_TD
$HMNAME MATS       17MATT1_17
         17   0.00522   1803.0   1858.7   282.5
../0_properties/graded_wall/grad_15_cp.txt
../0_properties/graded_wall/grad_15_cond.txt
*MAT_THERMAL_ISOTROPIC_TD
$HMNAME MATS       18MATT1_18
         18   0.00528   1798.0   1854.0   282.3
../0_properties/graded_wall/grad_16_cp.txt
../0_properties/graded_wall/grad_16_cond.txt
*MAT_THERMAL_ISOTROPIC_TD
$HMNAME MATS       19MATT1_19
         19   0.00533   1793.0   1849.4   282.1
../0_properties/graded_wall/grad_17_cp.txt
../0_properties/graded_wall/grad_17_cond.txt
*MAT_THERMAL_ISOTROPIC_TD
$HMNAME MATS       20MATT1_20
         20   0.00539   1788.0   1844.8   281.8
../0_properties/graded_wall/grad_18_cp.txt
../0_properties/graded_wall/grad_18_cond.txt
*MAT_THERMAL_ISOTROPIC_TD
$HMNAME MATS       21MATT1_21
         21   0.00544   1783.0   1840.2   281.6
../0_properties/graded_wall/grad_19_cp.txt
../0_properties/graded_wall/grad_19_cond.txt
*MAT_THERMAL_ISOTROPIC_TD
$HMNAME MATS       22MATT1_22
         22   0.00550   1778.0   1835.5   281.4
../0_properties/graded_wall/grad_20_cp.txt
../0_properties/graded_wall/grad_20_cond.txt
*MAT_THERMAL_ISOTROPIC_TD
$HMNAME MATS       23MATT1_23
         23   0.00555   1773.0   1830.9   281.1
../0_properties/graded_wall/grad_21_cp.txt
../0_properties/graded_wall/grad_21_cond.txt
*MAT_THERMAL_ISOTROPIC_TD
$HMNAME MATS       24MATT1_24
         24   0.00561   1768.0   1826.3   280.9
../0_properties/graded_wall/grad_22_cp.txt
../0_properties/graded_wall/grad_22_cond.txt
*MAT_THERMAL_ISOTROPIC_TD
$HMNAME MATS       25MATT1_25
         25   0.00566   1763.0   1821.7   280.7
../0_properties/graded_wall/grad_23_cp.txt
../0_properties/graded_wall/grad_23_cond.txt
*MAT_THERMAL_ISOTROPIC_TD
$HMNAME MATS       26MATT1_26
         26   0.00572   1758.0   1817.0   280.4
../0_properties/graded_wall/grad_24_cp.txt
../0_properties/graded_wall/grad_24_cond.txt
*MAT_THERMAL_ISOTROPIC_TD
$HMNAME MATS       27MATT1_27
         27   0.00577   1753.0   1812.4   280.2
../0_properties/graded_wall/grad_25_cp.txt
../0_properties/graded_wall/grad_25_cond.txt
*MAT_THERMAL_ISOTROPIC_TD
$HMNAME MATS       28MATT1_28
         28   0.00583   1748.0   1807.8   280.0
../0_properties/graded_wall/grad_26_cp.txt
../0_properties/graded_wall/grad_26_cond.txt
*MAT_THERMAL_ISOTROPIC_TD
$HMNAME MATS       29MATT1_29
         29   0.00588   1743.0   1803.2   279.7
../0_properties/graded_wall/grad_27_cp.txt
../0_properties/graded_wall/grad_27_cond.txt
*MAT_THERMAL_ISOTROPIC_TD
$HMNAME MATS       30MATT1_30
         30   0.00594   1738.0   1798.6   279.5
../0_properties/graded_wall/grad_28_cp.txt
../0_properties/graded_wall/grad_28_cond.txt
*MAT_THERMAL_ISOTROPIC_TD
$HMNAME MATS       31MATT1_31
         31   0.00599   1733.0   1793.9   279.3
../0_properties/graded_wall/grad_29_cp.txt
../0_properties/graded_wall/grad_29_cond.txt
*MAT_THERMAL_ISOTROPIC_TD
$HMNAME MATS       32MATT1_32
         32   0.00605   1728.0   1789.3   279.0
../0_properties/graded_wall/grad_30_cp.txt
../0_properties/graded_wall/grad_30_cond.txt
*MAT_THERMAL_ISOTROPIC_TD
$HMNAME MATS       33MATT1_33
         33   0.00610   1723.0   1784.7   278.8
../0_properties/graded_wall/grad_31_cp.txt
../0_properties/graded_wall/grad_31_cond.txt
*MAT_THERMAL_ISOTROPIC_TD
$HMNAME MATS       34MATT1_34
         34   0.00616   1718.0   1780.1   278.6
../0_properties/graded_wall/grad_32_cp.txt
../0_properties/graded_wall/grad_32_cond.txt
*MAT_THERMAL_ISOTROPIC_TD
$HMNAME MATS       35MATT1_35
         35   0.00621   1713.0   1775.4   278.3
../0_properties/graded_wall/grad_33_cp.txt
../0_properties/graded_wall/grad_33_cond.txt
*MAT_THERMAL_ISOTROPIC_TD
$HMNAME MATS       36MATT1_36
         36   0.00627   1708.0   1770.8   278.1
../0_properties/graded_wall/grad_34_cp.txt
../0_properties/graded_wall/grad_34_cond.txt
*MAT_THERMAL_ISOTROPIC_TD
$HMNAME MATS       37MATT1_37
         37   0.00632   1703.0   1766.2   277.9
../0_properties/graded_wall/grad_35_cp.txt
../0_properties/graded_wall/grad_35_cond.txt
*MAT_THERMAL_ISOTROPIC_TD
$HMNAME MATS       38MATT1_38
         38   0.00638   1698.0   1761.6   277.7
../0_properties/graded_wall/grad_36_cp.txt
../0_properties/graded_wall/grad_36_cond.txt
*MAT_THERMAL_ISOTROPIC_TD
$HMNAME MATS       39MATT1_39
         39   0.00643   1693.0   1756.9   277.4
../0_properties/graded_wall/grad_37_cp.txt
../0_properties/graded_wall/grad_37_cond.txt
*MAT_THERMAL_ISOTROPIC_TD
$HMNAME MATS       40MATT1_40
         40   0.00649   1688.0   1752.3   277.2
../0_properties/graded_wall/grad_38_cp.txt
../0_properties/graded_wall/grad_38_cond.txt
*MAT_THERMAL_ISOTROPIC_TD
$HMNAME MATS       41MATT1_41
         41   0.00654   1683.0   1747.7   277.0
../0_properties/graded_wall/grad_39_cp.txt
../0_properties/graded_wall/grad_39_cond.txt
*MAT_THERMAL_ISOTROPIC_TD
$HMNAME MATS       42MATT1_42
         42   0.00660   1678.0   1743.1   276.7
../0_properties/graded_wall/grad_40_cp.txt
../0_properties/graded_wall/grad_40_cond.txt
*MAT_THERMAL_ISOTROPIC_TD
$HMNAME MATS       43MATT1_43
         43   0.00665   1673.0   1738.4   276.5
../0_properties/graded_wall/grad_41_cp.txt
../0_properties/graded_wall/grad_41_cond.txt
*MAT_THERMAL_ISOTROPIC_TD
$HMNAME MATS       44MATT1_44
         44   0.00671   1668.0   1733.8   276.3
../0_properties/graded_wall/grad_42_cp.txt
../0_properties/graded_wall/grad_42_cond.txt
*MAT_THERMAL_ISOTROPIC_TD
$HMNAME MATS       45MATT1_45
         45   0.00676   1663.0   1729.2   276.0
../0_properties/graded_wall/grad_43_cp.txt
../0_properties/graded_wall/grad_43_cond.txt
*MAT_THERMAL_ISOTROPIC_TD
$HMNAME MATS       46MATT1_46
         46   0.00682   1658.0   1724.6   275.8
../0_properties/graded_wall/grad_44_cp.txt
../0_properties/graded_wall/grad_44_cond.txt
*MAT_THERMAL_ISOTROPIC_TD
$HMNAME MATS       47MATT1_47
         47   0.00687   1653.0   1720.0   275.6
../0_properties/graded_wall/grad_45_cp.txt
../0_properties/graded_wall/grad_45_cond.txt
*MAT_THERMAL_ISOTROPIC_TD
$HMNAME MATS       48MATT1_48
         48   0.00693   1648.0   1715.3   275.3
../0_properties/graded_wall/grad_46_cp.txt
../0_properties/graded_wall/grad_46_cond.txt
*MAT_THERMAL_ISOTROPIC_TD
$HMNAME MATS       49MATT1_49
         49   0.00698   1643.0   1710.7   275.1
../0_properties/graded_wall/grad_47_cp.txt
../0_properties/graded_wall/grad_47_cond.txt
*MAT_THERMAL_ISOTROPIC_TD
$HMNAME MATS       50MATT1_50
         50   0.00704   1638.0   1706.1   274.9
../0_properties/graded_wall/grad_48_cp.txt
../0_properties/graded_wall/grad_48_cond.txt
*MAT_THERMAL_ISOTROPIC_TD
$HMNAME MATS       51MATT1_51
         51   0.00709   1633.0   1701.5   274.6
../0_properties/graded_wall/grad_49_cp.txt
../0_properties/graded_wall/grad_49_cond.txt
*MAT_THERMAL_ISOTROPIC_TD
$HMNAME MATS       52MATT1_52
         52   0.00715   1628.0   1696.8   274.4
../0_properties/graded_wall/grad_50_cp.txt
../0_properties/graded_wall/grad_50_cond.txt
*MAT_THERMAL_ISOTROPIC_TD
$HMNAME MATS       53MATT1_53
         53   0.00720   1623.0   1692.2   274.2
../0_properties/graded_wall/grad_51_cp.txt
../0_properties/graded_wall/grad_51_cond.txt
*MAT_THERMAL_ISOTROPIC_TD
$HMNAME MATS       54MATT1_54
         54   0.00726   1618.0   1687.6   273.9
../0_properties/graded_wall/grad_52_cp.txt
../0_properties/graded_wall/grad_52_cond.txt
*MAT_THERMAL_ISOTROPIC_TD
$HMNAME MATS       55MATT1_55
         55   0.00731   1613.0   1683.0   273.7
../0_properties/graded_wall/grad_53_cp.txt
../0_properties/graded_wall/grad_53_cond.txt
*MAT_THERMAL_ISOTROPIC_TD
$HMNAME MATS       56MATT1_56
         56   0.00737   1608.0   1678.3   273.5
../0_properties/graded_wall/grad_54_cp.txt
../0_properties/graded_wall/grad_54_cond.txt
*MAT_THERMAL_ISOTROPIC_TD
$HMNAME MATS       57MATT1_57
         57   0.00742   1603.0   1673.7   273.2
../0_properties/graded_wall/grad_55_cp.txt
../0_properties/graded_wall/grad_55_cond.txt
*MAT_THERMAL_ISOTROPIC_TD
$HMNAME MATS       58MATT1_58
         58   0.00748   1598.0   1669.1   273.0
../0_properties/graded_wall/grad_56_cp.txt
../0_properties/graded_wall/grad_56_cond.txt
*MAT_THERMAL_ISOTROPIC_TD
$HMNAME MATS       59MATT1_59
         59   0.00753   1593.0   1664.5   272.8
../0_properties/graded_wall/grad_57_cp.txt
../0_properties/graded_wall/grad_57_cond.txt
*MAT_THERMAL_ISOTROPIC_TD
$HMNAME MATS       60MATT1_60
         60   0.00759   1588.0   1659.9   272.6
../0_properties/graded_wall/grad_58_cp.txt
../0_properties/graded_wall/grad_58_cond.txt
*MAT_THERMAL_ISOTROPIC_TD
$HMNAME MATS       61MATT1_61
         61   0.00764   1583.0   1655.2   272.3
../0_properties/graded_wall/grad_59_cp.txt
../0_properties/graded_wall/grad_59_cond.txt
*MAT_THERMAL_ISOTROPIC_TD
$HMNAME MATS       62MATT1_62
         62   0.00770   1578.0   1650.6   272.1
../0_properties/graded_wall/grad_60_cp.txt
../0_properties/graded_wall/grad_60_cond.txt
*MAT_THERMAL_ISOTROPIC_TD
$HMNAME MATS       63MATT1_63
         63   0.00775   1573.0   1646.0   271.9
../0_properties/graded_wall/grad_61_cp.txt
../0_properties/graded_wall/grad_61_cond.txt
*MAT_THERMAL_ISOTROPIC_TD
$HMNAME MATS       64MATT1_64
         64   0.00781   1568.0   1641.4   271.6
../0_properties/graded_wall/grad_62_cp.txt
../0_properties/graded_wall/grad_62_cond.txt
*MAT_THERMAL_ISOTROPIC_TD
$HMNAME MATS       65MATT1_65
         65   0.00786   1563.0   1636.7   271.4
../0_properties/graded_wall/grad_63_cp.txt
../0_properties/graded_wall/grad_63_cond.txt
*MAT_THERMAL_ISOTROPIC_TD
$HMNAME MATS       66MATT1_66
         66   0.00792   1558.0   1632.1   271.2
../0_properties/graded_wall/grad_64_cp.txt
../0_properties/graded_wall/grad_64_cond.txt
*MAT_THERMAL_ISOTROPIC_TD
$HMNAME MATS       67MATT1_67
         67   0.00797   1553.0   1627.5   270.9
../0_properties/graded_wall/grad_65_cp.txt
../0_properties/graded_wall/grad_65_cond.txt
*MAT_THERMAL_ISOTROPIC_TD
$HMNAME MATS       68MATT1_68
         68   0.00803   1548.0   1622.9   270.7
../0_properties/graded_wall/grad_66_cp.txt
../0_properties/graded_wall/grad_66_cond.txt
*MAT_THERMAL_ISOTROPIC_TD
$HMNAME MATS       69MATT1_69
         69   0.00808   1543.0   1618.2   270.5
../0_properties/graded_wall/grad_67_cp.txt
../0_properties/graded_wall/grad_67_cond.txt
*MAT_THERMAL_ISOTROPIC_TD
$HMNAME MATS       70MATT1_70
         70   0.00814   1538.0   1613.6   270.2
../0_properties/graded_wall/grad_68_cp.txt
../0_properties/graded_wall/grad_68_cond.txt
*MAT_THERMAL_ISOTROPIC_TD
$HMNAME MATS       71MATT1_71
         71   0.00819   1533.0   1609.0   270.0
../0_properties/graded_wall/grad_69_cp.txt
../0_properties/graded_wall/grad_69_cond.txt
*PART
$HWCOLOR COMPS       1       3
Base_Plate
         1         0         1
$HWCOLOR COMPS        2       5
Wall_Grad_00_TI100_IN0
          2         0         2
$HWCOLOR COMPS        3       5
Wall_Grad_01_TI99_IN1
          3         0         3
$HWCOLOR COMPS        4       5
Wall_Grad_02_TI97_IN3
          4         0         4
$HWCOLOR COMPS        5       5
Wall_Grad_03_TI96_IN4
          5         0         5
$HWCOLOR COMPS        6       5
Wall_Grad_04_TI94_IN6
          6         0         6
$HWCOLOR COMPS        7       5
Wall_Grad_05_TI93_IN7
          7         0         7
$HWCOLOR COMPS        8       5
Wall_Grad_06_TI91_IN9
          8         0         8
$HWCOLOR COMPS        9       5
Wall_Grad_07_TI90_IN10
          9         0         9
$HWCOLOR COMPS       10       5
Wall_Grad_08_TI88_IN12
         10         0        10
$HWCOLOR COMPS       11       5
Wall_Grad_09_TI87_IN13
         11         0        11
$HWCOLOR COMPS       12       5
Wall_Grad_10_TI86_IN14
         12         0        12
$HWCOLOR COMPS       13       5
Wall_Grad_11_TI84_IN16
         13         0        13
$HWCOLOR COMPS       14       5
Wall_Grad_12_TI83_IN17
         14         0        14
$HWCOLOR COMPS       15       5
Wall_Grad_13_TI81_IN19
         15         0        15
$HWCOLOR COMPS       16       5
Wall_Grad_14_TI80_IN20
         16         0        16
$HWCOLOR COMPS       17       5
Wall_Grad_15_TI78_IN22
         17         0        17
$HWCOLOR COMPS       18       5
Wall_Grad_16_TI77_IN23
         18         0        18
$HWCOLOR COMPS       19       5
Wall_Grad_17_TI75_IN25
         19         0        19
$HWCOLOR COMPS       20       5
Wall_Grad_18_TI74_IN26
         20         0        20
$HWCOLOR COMPS       21       5
Wall_Grad_19_TI72_IN28
$ ... 151 like lines cut
*LOAD_NODE_SET
$HMNAME LOADCOLS       1LoadNode_1
         3         1               300.0
$	 moving flux
         2         5                 0.0
$	 Radiation
         2         4                 0.2
$	 convection
         2         3             0.00002
*INITIAL_TEMPERATURE_SET
$HMNAME LOADCOLS       1InitialTemp_1
$HWCOLOR LOADCOLS       1       3
         1     300.0
*DEFINE_CURVE
         1                 1.0       1.0
          0.10000000        188.00000000
          0.10000000        189.00000000
          0.10000000        190.00000000
          0.10000000        191.00000000
          0.10000000        192.00000000
          0.10000000        193.00000000
          0.10000000        187.00000000
          0.10000000        197.00000000
          0.10000000        184.00000000
          0.10000000        196.00000000
          0.10000000        195.00000000
          0.10000000        194.00000000
          0.10000000        200.00000000
          0.10000000        186.00000000
          0.10000000        185.00000000
          0.10000000        198.00000000
          0.10000000        199.00000000
          0.10000000        183.00000000
          0.10000000        182.00000000
$ ... 13981 like lines cut
*NODE
$#   nid               x               y               z      tc      rc
       1       -7.000000       -0.500000        4.000000       0       0
       2       -7.000000        0.500000        4.000000       0       0
       3       -7.000000        0.500000        0.000000       0       0
       4       -7.000000       -0.500000        0.000000       0       0
       5        7.000000        0.500000        4.000000       0       0
       6        7.000000        0.500000        0.000000       0       0
       7        7.000000       -0.500000        0.000000       0       0
       8        7.000000       -0.500000        4.000000       0       0
       9       -8.000000        1.500000        0.000000       0       0
      10       -8.000000       -1.500000        0.000000       0       0
      11        8.000000       -1.500000        0.000000       0       0
      12        8.000000        1.500000        0.000000       0       0
      13        8.000000       -1.500000       -4.000000       0       0
      14       -8.000000       -1.500000       -4.000000       0       0
      15       -8.000000        1.500000       -4.000000       0       0
      16        8.000000        1.500000       -4.000000       0       0
      17       -7.000000       -0.300000        4.000000       0       0
      18       -7.000000       -0.100000        4.000000       0       0
      19       -7.000000        0.100000        4.000000       0       0
      20       -7.000000        0.300000        4.000000       0       0
$ ... 23229 like lines cut
*ELEMENT_SOLID
$#   eid     pid      n1      n2      n3      n4      n5      n6      n7      n8
       1       2     326    6331    8451     949       1      17     637     102
       2       2    6331    6332    8452    8451      17      18     638     637
       3       2    6332    6333    8453    8452      18      19     639     638
       4       2    6333    6334    8454    8453      19      20     640     639
       5       2    6334     396    3640    8454      20       2      21     640
       6       2     949    8451    8455     950     102     637     641     101
       7       2    8451    8452    8456    8455     637     638     642     641
       8       2    8452    8453    8457    8456     638     639     643     642
       9       2    8453    8454    8458    8457     639     640     644     643
      10       2    8454    3640    3641    8458     640      21      22     644
      11       2     950    8455    8459     951     101     641     645     100
      12       2    8455    8456    8460    8459     641     642     646     645
      13       2    8456    8457    8461    8460     642     643     647     646
      14       2    8457    8458    8462    8461     643     644     648     647
      15       2    8458    3641    3642    8462     644      22      23     648
      16       2     951    8459    8463     952     100     645     649      99
      17       2    8459    8460    8464    8463     645     646     650     649
      18       2    8460    8461    8465    8464     646     647     651     650
      19       2    8461    8462    8466    8465     647     648     652     651
      20       2    8462    3642    3643    8466     648      23      24     652
$ ... 19056 like lines cut
*SET_NODE_LIST
$#     sid       da1       da2       da3       da4    solver
         1
$#    nid1      nid2      nid3      nid4      nid5      nid6      nid7      nid8
         1         2         3         4         5         6         7         8
         9        10        11        12        13        14        15        16
        17        18        19        20        21        22        23        24
        25        26        27        28        29        30        31        32
        33        34        35        36        37        38        39        40
        41        42        43        44        45        46        47        48
        49        50        51        52        53        54        55        56
        57        58        59        60        61        62        63        64
        65        66        67        68        69        70        71        72
        73        74        75        76        77        78        79        80
        81        82        83        84        85        86        87        88
        89        90        91        92        93        94        95        96
        97        98        99       100       101       102       103       104
       105       106       107       108       109       110       111       112
       113       114       115       116       117       118       119       120
       121       122       123       124       125       126       127       128
       129       130       131       132       133       134       135       136
       137       138       139       140       141       142       143       144
       145       146       147       148       149       150       151       152
       153       154       155       156       157       158       159       160
$ ... 2887 like lines cut
*SET_NODE_LIST
$#     sid       da1       da2       da3       da4    solver
         2
$#    nid1      nid2      nid3      nid4      nid5      nid6      nid7      nid8
         1         2         3         4         5         6         7         8
         9        10        11        12        17        18        19        20
        21        22        23        24        25        26        27        28
        29        30        31        32        33        34        35        36
        37        38        39        40        41        42        43        44
        45        46        47        48        49        50        51        52
        53        54        55        56        57        58        59        60
        61        62        63        64        65        66        67        68
        69        70        71        72        73        74        75        76
        77        78        79        80        81        82        83        84
        85        86        87        88        89        90        91        92
        93        94        95        96        97        98        99       100
       101       102       103       104       105       106       107       108
       109       110       111       112       113       114       115       116
       117       118       119       120       121       122       123       124
       125       126       127       128       129       130       131       132
       133       134       135       136       137       138       139       140
       141       142       143       144       145       146       147       148
       149       150       151       152       153       154       155       156
       157       158       159       160       161       162       163       164
$ ... 2221 like lines cut
*SET_NODE_LIST
$#     sid       da1       da2       da3       da4    solver
         3
$#    nid1      nid2      nid3      nid4      nid5      nid6      nid7      nid8
        13        14        15        16       561       562       563       564
       565       566       567       568       569       570       571       572
       573       574       575       576       577       578       579       580
       581       582       583       584       585       586       587       588
       589       590       591       592       593       594       595       596
       597       598       599       600       601       602       603       604
       605       606       607       608       609       610       611       612
       613       614       615       616       617       618       619       620
       621       622       623       624       625       626       627       628
       629       630       631       632       633       634       635       636
      7264      7265      7266      7267      7268      7269      7270      7271
      7272      7273      7274      7275      7276      7277      7278      7279
      7280      7281      7282      7283      7284      7285      7286      7287
      7288      7289      7290      7291      7292      7293      7294      7295
      7296      7297      7298      7299      7300      7301      7302      7303
      7304      7305      7306      7307      7308      7309      7310      7311
      7312      7313      7314      7315      7316      7317      7318      7319
      7320      7321      7322      7323      7324      7325      7326      7327
      7328      7329      7330      7331      7332      7333      7334      7335
      7336      7337      7338      7339      7340      7341      7342      7343
$ ... 91 like lines cut
*SET_SOLID
$#     sid    solver
         1MECH
$#      k1        k2        k3        k4        k5        k6        k7        k8
         1         2         3         4         5         6         7         8
         9        10        11        12        13        14        15        16
        17        18        19        20        21        22        23        24
        25        26        27        28        29        30        31        32
        33        34        35        36        37        38        39        40
        41        42        43        44        45        46        47        48
        49        50        51        52        53        54        55        56
        57        58        59        60        61        62        63        64
        65        66        67        68        69        70        71        72
        73        74        75        76        77        78        79        80
        81        82        83        84        85        86        87        88
        89        90        91        92        93        94        95        96
        97        98        99       100       101       102       103       104
       105       106       107       108       109       110       111       112
       113       114       115       116       117       118       119       120
       121       122       123       124       125       126       127       128
       129       130       131       132       133       134       135       136
       137       138       139       140       141       142       143       144
       145       146       147       148       149       150       151       152
       153       154       155       156       157       158       159       160
$ ... 1730 like lines cut

*SET_SOLID
$#     sid    solver
         2MECH
$#      k1        k2        k3        k4        k5        k6        k7        k8
     14001     14002     14003     14004     14005     14006     14007     14008
     14009     14010     14011     14012     14013     14014     14015     14016
     14017     14018     14019     14020     14021     14022     14023     14024
     14025     14026     14027     14028     14029     14030     14031     14032
     14033     14034     14035     14036     14037     14038     14039     14040
     14041     14042     14043     14044     14045     14046     14047     14048
     14049     14050     14051     14052     14053     14054     14055     14056
     14057     14058     14059     14060     14061     14062     14063     14064
     14065     14066     14067     14068     14069     14070     14071     14072
     14073     14074     14075     14076     14077     14078     14079     14080
     14081     14082     14083     14084     14085     14086     14087     14088
     14089     14090     14091     14092     14093     14094     14095     14096
     14097     14098     14099     14100     14101     14102     14103     14104
     14105     14106     14107     14108     14109     14110     14111     14112
     14113     14114     14115     14116     14117     14118     14119     14120
     14121     14122     14123     14124     14125     14126     14127     14128
     14129     14130     14131     14132     14133     14134     14135     14136
     14137     14138     14139     14140     14141     14142     14143     14144
     14145     14146     14147     14148     14149     14150     14151     14152
     14153     14154     14155     14156     14157     14158     14159     14160
$ ... 615 like lines cut
*END