*KEYWORD_ID
DED
*PARAMETER
Rboltz    5.6704E-14
*PARAMETER
Rambient       300.0
*PARAMETER
Rabszero         0.0
*TOOL_FILE
./part002_LP800_SSp10_H2.24_SSt3_LH0.9/toolpath.crs
*GAUSS_LASER
800.0 1.12 0.4
*SCALAR_OUT
temp
solid_rate
theta_hist
nid_true
*CONTROL_TERMINATION
$$  ENDTIM    ENDCYC     DTMIN    ENDENG    ENDMAS
   1000.0 
*CONTROL_TIMESTEP
$$  DTINIT    TSSFAC      ISDO    TSLIMT     DT2MS      LCTM     EROD       E     MSIST
    1.0E-2       1.0
*CONTROL_SOLUTION
$$    SOLN
         0
*DATABASE_NODOUT
$$      DT    BINARY      LCUR      IOPT      DTHF     BINHF
    10.000         0
*MAT_THERMAL_ISOTROPIC_TD
$HMNAME MATS       1MATT1_1
         1   0.00819   1533   1609     270
./materials/IN718_cp.txt
./materials/IN718_cond.txt
*MAT_THERMAL_ISOTROPIC_TD
$HMNAME MATS       2MATT1_2
         2   0.00440   1878   1928     286
./materials/TI64_cp.txt
./materials/TI64_cond.txt
*PART
$HWCOLOR COMPS       1       3
Substrate
         1         0         1
$HWCOLOR COMPS       2       4
Build
         2         0         2
*LOAD_NODE_SET
$HMNAME LOADCOLS       1LoadNode_1
         3         1               300.0
$	 moving flux
         2         5                 0.0
$	 Radiation
         2         4                 0.2
$	 convection
         2         3             0.00005
*INITIAL_TEMPERATURE_SET
$HMNAME LOADCOLS       1InitialTemp_1
$HWCOLOR LOADCOLS       1       3
         1     300.0
    *DEFINE_CURVE
         1                 1.0       1.0
     100000.00000000      18936.00000000
     100000.00000000        987.00000000
     100000.00000000       2529.00000000
     100000.00000000        985.00000000
     100000.00000000       6613.00000000
     100000.00000000       4841.00000000
     100000.00000000      13354.00000000
     100000.00000000      17195.00000000
     100000.00000000      13341.00000000
     100000.00000000      11110.00000000
     100000.00000000      17279.00000000
     100000.00000000      17283.00000000
     100000.00000000      17287.00000000
     100000.00000000      12790.00000000
     100000.00000000       7162.00000000
     100000.00000000      13339.00000000
     100000.00000000       1000.00000000
     100000.00000000       6647.00000000
     100000.00000000       2495.00000000
$ ... 22630 like lines cut
*NODE
$#   nid               x               y               z      tc      rc
       1      -20.955000      -12.098375        0.000000       0       0
       2        0.000000      -24.196751        0.000000       0       0
       3       20.955000      -12.098375        0.000000       0       0
       4       20.955000       12.098375        0.000000       0       0
       5        0.000000       24.196751        0.000000       0       0
       6      -20.955000       12.098375        0.000000       0       0
       7      -11.064241        0.000000        0.000000       0       0
       8       11.064241        0.000000        0.000000       0       0
       9      -20.955000      -12.098375        8.799999       0       0
      10        0.000000      -24.196751        8.799999       0       0
      11       20.955000      -12.098375        8.799999       0       0
      12       20.955000       12.098375        8.799999       0       0
      13        0.000000       24.196751        8.799999       0       0
      14      -20.955000       12.098375        8.799999       0       0
      15      -11.064241        0.000000        8.799999       0       0
      16       11.064241        0.000000        8.799999       0       0
      17      -50.000000        0.000000        0.000000       0       0
      18       50.000000        0.000000        0.000000       0       0
      19      -50.000000        0.000000      -20.000000       0       0
      20       50.000000        0.000000      -20.000000       0       0
$ ... 46772 like lines cut
*ELEMENT_SOLID
$#   eid     pid      n1      n2      n3      n4      n5      n6      n7      n8
       1       1    1360    1115    1175    1365   14728   14483   14543   14733
       2       1    1116     754    1365    1175   14484   14122   14733   14543
       3       1    1627    1095    1728    1520   14995   14463   15096   14888
       4       1    1995    2436    2130    2414   15363   15804   15498   15782
       5       1    2230    1737    1081    2316   15598   15105   14449   15684
       6       1    1075    1364    1461    1562   14443   14732   14829   14930
       7       1    1070    1362    1482    1568   14438   14730   14850   14936
       8       1    1065    1374    1499    1576   14433   14742   14867   14944
       9       1    1060    1375    1501    1574   14428   14743   14869   14942
      10       1    1055    1376    1496    1565   14423   14744   14864   14933
      11       1    1049    1377    1479    1560   14417   14745   14847   14928
      12       1    1043    1378    1459    2421   14411   14746   14827   15789
      13       1    2025    1961    1799    1951   15393   15329   15167   15319
      14       1    2082    2422    1037    1898   15450   15790   14405   15266
      15       1    1522    1812    1730    1629   14890   15180   15098   14997
      16       1     165    1105    1107     164    4913   14473   14475    4912
      17       1    1352    1114    1120     961   14720   14482   14488   14329
      18       1    1109     163     164    1107   14477    4911    4912   14475
      19       1     930    1107    1105    1216   14298   14475   14473   14584
      20       1     930    1870    1812    2423   14298   15238   15180   15791
$ ... 40645 like lines cut
*SET_NODE_LIST
$#     sid       da1       da2       da3       da4    solver
         1
$#    nid1      nid2      nid3      nid4      nid5      nid6      nid7      nid8
         1         2         3         4         5         6         7         8
         9        10        11        12        13        14        15        16
        17        18        19        20        21        22        23        24
        25        26        27        28        29        30        31        32
        33        34        35        36        37        38        39        40
        41        42        43        44        45        46        47        48
        49        50        51        52        53        54        55        56
        57        58        59        60        61        62        63        64
        65        66        67        68        69        70        71        72
        73        74        75        76        77        78        79        80
        81        82        83        84        85        86        87        88
        89        90        91        92        93        94        95        96
        97        98        99       100       101       102       103       104
       105       106       107       108       109       110       111       112
       113       114       115       116       117       118       119       120
       121       122       123       124       125       126       127       128
       129       130       131       132       133       134       135       136
       137       138       139       140       141       142       143       144
       145       146       147       148       149       150       151       152
       153       154       155       156       157       158       159       160
$ ... 5829 like lines cut

*SET_NODE_LIST
$#     sid       da1       da2       da3       da4    solver
         2
$#    nid1      nid2      nid3      nid4      nid5      nid6      nid7      nid8
         1         2         3         4         5         6         7         8
         9        10        11        12        13        14        15        16
        17        18        21        22        23        24        25        26
        27        28        29        30        31        32        33        34
        35        36        37        38        39        40        41        42
        43        44        45        46        47        48        49        50
        51        52        53        54        55        56        57        58
        59        60        61        62        63        64        65        66
        67        68        69        70        71        72        73        74
        75        76        77        78        79        80        81        82
        83        84        85        86        87        88        89        90
        91        92        93        94        95        96        97        98
        99       100       101       102       103       104       105       106
       107       108       109       110       111       112       113       114
       115       116       117       118       119       120       121       122
       123       124       125       126       127       128       129       130
       131       132       133       134       135       136       137       138
       139       140       141       142       143       144       145       146
       147       148       149       150       151       152       153       154
       155       156       157       158       159       160       161       162
$ ... 3561 like lines cut

*SET_NODE_LIST
$#     sid       da1       da2       da3       da4    solver
         3
$#    nid1      nid2      nid3      nid4      nid5      nid6      nid7      nid8
        19        20       683       684       685       686       687       688
       689       690       691       692       693       694       695       696
       697       698       699       700       701       702       703       704
       705       706       707       708       709       710       711       712
       713       714       715       716       717       718       719       720
       721       722       723       724       725       726       727       728
       729       730       731       732       733       734       735       736
       737       738       739       740       741       742      9457      9458
      9459      9460      9461      9462      9463      9464      9465      9466
      9467      9468      9469      9470      9471      9472      9473      9474
      9475      9476      9477      9478      9479      9480      9481      9482
      9483      9484      9485      9486      9487      9488      9489      9490
      9491      9492      9493      9494      9495      9496      9497      9498
      9499      9500      9501      9502      9503      9504      9505      9506
      9507      9508      9509      9510      9511      9512      9513      9514
      9515      9516      9517      9518      9519      9520      9521      9522
      9523      9524      9525      9526      9527      9528      9529      9530
      9531      9532      9533      9534      9535      9536      9537      9538
      9539      9540      9541      9542      9543      9544      9545      9546
      9547      9548      9549      9550      9551      9552      9553      9554
$ ... 547 like lines cut

*SET_SOLID
$#     sid    solver
         1MECH
$#      k1        k2        k3        k4        k5        k6        k7        k8
         1         2         3         4         5         6         7         8
         9        10        11        12        13        14        15        16
        17        18        19        20        21        22        23        24
        25        26        27        28        29        30        31        32
        33        34        35        36        37        38        39        40
        41        42        43        44        45        46        47        48
        49        50        51        52        53        54        55        56
        57        58        59        60        61        62        63        64
        65        66        67        68        69        70        71        72
        73        74        75        76        77        78        79        80
        81        82        83        84        85        86        87        88
        89        90        91        92        93        94        95        96
        97        98        99       100       101       102       103       104
       105       106       107       108       109       110       111       112
       113       114       115       116       117       118       119       120
       121       122       123       124       125       126       127       128
       129       130       131       132       133       134       135       136
       137       138       139       140       141       142       143       144
       145       146       147       148       149       150       151       152
       153       154       155       156       157       158       159       160
$ ... 2812 like lines cut
*SET_SOLID
$#     sid    solver
         2MECH
$#      k1        k2        k3        k4        k5        k6        k7        k8
     22650     22651     22652     22653     22654     22655     22656     22657
     22658     22659     22660     22661     22662     22663     22664     22665
     22666     22667     22668     22669     22670     22671     22672     22673
     22674     22675     22676     22677     22678     22679     22680     22681
     22682     22683     22684     22685     22686     22687     22688     22689
     22690     22691     22692     22693     22694     22695     22696     22697
     22698     22699     22700     22701     22702     22703     22704     22705
     22706     22707     22708     22709     22710     22711     22712     22713
     22714     22715     22716     22717     22718     22719     22720     22721
     22722     22723     22724     22725     22726     22727     22728     22729
     22730     22731     22732     22733     22734     22735     22736     22737
     22738     22739     22740     22741     22742     22743     22744     22745
     22746     22747     22748     22749     22750     22751     22752     22753
     22754     22755     22756     22757     22758     22759     22760     22761
     22762     22763     22764     22765     22766     22767     22768     22769
     22770     22771     22772     22773     22774     22775     22776     22777
     22778     22779     22780     22781     22782     22783     22784     22785
     22786     22787     22788     22789     22790     22791     22792     22793
     22794     22795     22796     22797     22798     22799     22800     22801
     22802     22803     22804     22805     22806     22807     22808     22809
$ ... 2232 like lines cut

*END