*KEYWORD_ID
DED
*PARAMETER
Rboltz    5.6704E-14
*PARAMETER
Rambient       300.0
*PARAMETER
Rabszero         0.0
*TOOL_FILE
./part004_LP400_SSp8_H1.12_SSt1_LH1.0/toolpath.crs
*GAUSS_LASER
1000 1.12 0.4
*SCALAR_OUT
temp
solid_rate
theta_hist
nid_true
*CONTROL_TERMINATION
$$  ENDTIM    ENDCYC     DTMIN    ENDENG    ENDMAS
   793.7401338066674 
*CONTROL_TIMESTEP
$$  DTINIT    TSSFAC      ISDO    TSLIMT     DT2MS      LCTM     EROD       E     MSIST
    1.0E-2       1.0
*CONTROL_SOLUTION
$$    SOLN
         0
*DATABASE_NODOUT
$$      DT    BINARY      LCUR      IOPT      DTHF     BINHF
    10.000         0
*MAT_THERMAL_GRADED_TD
$HMNAME MATS     1GRADED_POSITION
          1       2   0.00819   1533.0   1609.0   270.0   0.00440   1878.0   1928.0   286.0
./materials/IN718_cp.txt
./materials/IN718_cond.txt
./materials/TI64_cp.txt
./materials/TI64_cond.txt
*MAT_THERMAL_ISOTROPIC_TD
$HMNAME MATS       2MATT1_2
         2   0.00440   1878   1928     286
./materials/TI64_cp.txt
./materials/TI64_cond.txt
*PART
$HWCOLOR COMPS       1       3
Substrate
         1         0         1
$HWCOLOR COMPS       2       4
Build
         2         0         2
*LOAD_NODE_SET
$HMNAME LOADCOLS       1LoadNode_1
         3         1               300.0
$	 moving flux
         2         5                 0.0
$	 Radiation
         2         4                 0.2
$	 convection
         2         3             0.00005
*INITIAL_TEMPERATURE_SET
$HMNAME LOADCOLS       1InitialTemp_1
$HWCOLOR LOADCOLS       1       3
         1     300.0
    *DEFINE_CURVE
         1                 1.0       1.0
          6.97325665        110.00000000
          7.09817081          4.00000000
          7.22308498        188.00000000
          7.34799914        144.00000000
          7.48540473         44.00000000
          7.61031889        145.00000000
          7.73523306        146.00000000
          7.86014722         41.00000000
          7.98506139        181.00000000
          8.10997555        147.00000000
          8.23488972        148.00000000
          8.35980388         36.00000000
          8.48471805         35.00000000
          8.60963221         34.00000000
          8.73454638         33.00000000
          8.85946054         32.00000000
          8.99686613          3.00000000
          9.12178029         31.00000000
          9.24669446        164.00000000
$ ... 5781 like lines cut
*ELEMENT_COMPOSITION
         1
          0.27905501          0.72094499                   1
          0.40311731          0.59688269                   2
          0.42885968          0.57114032                   3
          0.44330469          0.55669531                   4
          0.28267888          0.71732112                   5
          0.28168983          0.71831017                   6
          0.25833470          0.74166530                   7
          0.25147327          0.74852673                   8
          0.25569108          0.74430892                   9
          0.27550935          0.72449065                  10
          0.49375948          0.50624052                  11
          0.49290981          0.50709019                  12
          0.33357197          0.66642803                  13
          0.25102598          0.74897402                  14
          0.25780331          0.74219669                  15
          0.35276469          0.64723531                  16
          0.35502761          0.64497239                  17
          0.42363933          0.57636067                  18
          0.41649641          0.58350359                  19
$ ... 5781 like lines cut
*NODE
$#   nid               x               y               z      tc      rc
       1       -4.181707       30.247683        0.000000       0       0
       2       -4.181707        0.000000        0.000000       0       0
       3        0.000000        0.000000        0.000000       0       0
       4        0.000000       -4.228172        0.000000       0       0
       5       -4.181707       -4.228172        0.000000       0       0
       6       -4.181707      -10.895668        0.000000       0       0
       7       -0.487866      -10.895668        0.000000       0       0
       8       -0.487866       -7.480611        0.000000       0       0
       9        2.510528       -7.480611        0.000000       0       0
      10        2.510528      -11.031042        0.000000       0       0
      11        5.646383      -11.031042        0.000000       0       0
      12        5.646383       -7.480611        0.000000       0       0
      13        8.644777       -7.480611        0.000000       0       0
      14        8.644777      -10.895668        0.000000       0       0
      15       12.338618      -10.895668        0.000000       0       0
      16       12.338618       -4.228172        0.000000       0       0
      17        8.156911       -4.228172        0.000000       0       0
      18        8.156911        0.000000        0.000000       0       0
      19       12.338618        0.000000        0.000000       0       0
      20       12.338618       30.247683        0.000000       0       0
$ ... 16857 like lines cut
*ELEMENT_SOLID
$#   eid     pid      n1      n2      n3      n4      n5      n6      n7      n8
       1       1     925     940     984     978    6564    6579    6623    6617
       2       1     140     634     635     139    1995    6273    6274    1994
       3       1     614     602      60      61    6253    6241    2563    2564
       4       1      45      46     819    1173    2548    2549    6458    6812
       5       1     738      77      78     737    6377    2408    2409    6376
       6       1     743      79       4     769    6382    2410     297    6408
       7       1     898     831     669     770    6537    6470    6308    6409
       8       1     724     649     564     566    6363    6288    6203    6205
       9       1     567     563     724     568    6206    6202    6363    6207
      10       1      94      95     599     597    2534    2535    6238    6236
      11       1     576     575     745     730    6215    6214    6384    6369
      12       1     651     745     575     574    6290    6384    6214    6213
      13       1     830     747     751    1179    6469    6386    6390    6818
      14       1     907    1020    1026     928    6546    6659    6665    6567
      15       1     104     598     596      12    2282    6237    6235     240
      16       1     749     572     571     756    6388    6211    6210    6395
      17       1     746    1176     654    1174    6385    6815    6293    6813
      18       1     579     580     113     114    6218    6219    2431    2432
      19       1      73       2      74     603    2576     310    2471    6242
      20       1      75      76     728     890    2472    2473    6367    6529
$ ... 14040 like lines cut
*SET_NODE_LIST
$#     sid       da1       da2       da3       da4    solver
         1
$#    nid1      nid2      nid3      nid4      nid5      nid6      nid7      nid8
         1         2         3         4         5         6         7         8
         9        10        11        12        13        14        15        16
        17        18        19        20        21        22        23        24
        25        26        27        28        29        30        31        32
        33        34        35        36        37        38        39        40
        41        42        43        44        45        46        47        48
        49        50        51        52        53        54        55        56
        57        58        59        60        61        62        63        64
        65        66        67        68        69        70        71        72
        73        74        75        76        77        78        79        80
        81        82        83        84        85        86        87        88
        89        90        91        92        93        94        95        96
        97        98        99       100       101       102       103       104
       105       106       107       108       109       110       111       112
       113       114       115       116       117       118       119       120
       121       122       123       124       125       126       127       128
       129       130       131       132       133       134       135       136
       137       138       139       140       141       142       143       144
       145       146       147       148       149       150       151       152
       153       154       155       156       157       158       159       160
$ ... 2090 like lines cut
*SET_NODE_LIST
$#     sid       da1       da2       da3       da4    solver
         2
$#    nid1      nid2      nid3      nid4      nid5      nid6      nid7      nid8
         1         2         3         4         5         6         7         8
         9        10        11        12        13        14        15        16
        17        18        19        20        21        22        23        24
        25        26        27        28        29        30        31        32
        33        34        35        36        37        38        39        40
        41        42        45        46        47        48        49        50
        51        52        53        54        55        56        57        58
        59        60        61        62        63        64        65        66
        67        68        69        70        71        72        73        74
        75        76        77        78        79        80        81        82
        83        84        85        86        87        88        89        90
        91        92        93        94        95        96        97        98
        99       100       101       102       103       104       105       106
       107       108       109       110       111       112       113       114
       115       116       117       118       119       120       121       122
       123       124       125       126       127       128       129       130
       131       132       133       134       135       136       137       138
       139       140       141       142       143       144       145       146
       147       148       149       150       151       152       153       154
       155       156       157       158       159       160       161       162
$ ... 1042 like lines cut
*SET_NODE_LIST
$#     sid       da1       da2       da3       da4    solver
         3
$#    nid1      nid2      nid3      nid4      nid5      nid6      nid7      nid8
        43        44       503       504       505       506       507       508
       509       510       511       512       513       514       515       516
       517       518       519       520       521       522       523       524
       525       526       527       528       529       530       531       532
       533       534       535       536       537       538       539       540
       541       542       543       544       545       546       547       548
       549       550       551       552       553       554       555       556
       557       558       559       560       561       562      3987      3988
      3989      3990      3991      3992      3993      3994      3995      3996
      3997      3998      3999      4000      4001      4002      4003      4004
      4005      4006      4007      4008      4009      4010      4011      4012
      4013      4014      4015      4016      4017      4018      4019      4020
      4021      4022      4023      4024      4025      4026      4027      4028
      4029      4030      4031      4032      4033      4034      4035      4036
      4037      4038      4039      4040      4041      4042      4043      4044
      4045      4046      4047      4048      4049      4050      4051      4052
      4053      4054      4055      4056      4057      4058      4059      4060
      4061      4062      4063      4064      4065      4066      4067      4068
      4069      4070      4071      4072      4073      4074      4075      4076
      4077      4078      4079      4080      4081      4082      4083      4084
$ ... 243 like lines cut
*SET_SOLID
$#     sid    solver
         1MECH
$#      k1        k2        k3        k4        k5        k6        k7        k8
         1         2         3         4         5         6         7         8
         9        10        11        12        13        14        15        16
        17        18        19        20        21        22        23        24
        25        26        27        28        29        30        31        32
        33        34        35        36        37        38        39        40
        41        42        43        44        45        46        47        48
        49        50        51        52        53        54        55        56
        57        58        59        60        61        62        63        64
        65        66        67        68        69        70        71        72
        73        74        75        76        77        78        79        80
        81        82        83        84        85        86        87        88
        89        90        91        92        93        94        95        96
        97        98        99       100       101       102       103       104
       105       106       107       108       109       110       111       112
       113       114       115       116       117       118       119       120
       121       122       123       124       125       126       127       128
       129       130       131       132       133       134       135       136
       137       138       139       140       141       142       143       144
       145       146       147       148       149       150       151       152
       153       154       155       156       157       158       159       160
$ ... 705 like lines cut

*SET_SOLID
$#     sid    solver
         2MECH
$#      k1        k2        k3        k4        k5        k6        k7        k8
      5801      5802      5803      5804      5805      5806      5807      5808
      5809      5810      5811      5812      5813      5814      5815      5816
      5817      5818      5819      5820      5821      5822      5823      5824
      5825      5826      5827      5828      5829      5830      5831      5832
      5833      5834      5835      5836      5837      5838      5839      5840
      5841      5842      5843      5844      5845      5846      5847      5848
      5849      5850      5851      5852      5853      5854      5855      5856
      5857      5858      5859      5860      5861      5862      5863      5864
      5865      5866      5867      5868      5869      5870      5871      5872
      5873      5874      5875      5876      5877      5878      5879      5880
      5881      5882      5883      5884      5885      5886      5887      5888
      5889      5890      5891      5892      5893      5894      5895      5896
      5897      5898      5899      5900      5901      5902      5903      5904
      5905      5906      5907      5908      5909      5910      5911      5912
      5913      5914      5915      5916      5917      5918      5919      5920
      5921      5922      5923      5924      5925      5926      5927      5928
      5929      5930      5931      5932      5933      5934      5935      5936
      5937      5938      5939      5940      5941      5942      5943      5944
      5945      5946      5947      5948      5949      5950      5951      5952
      5953      5954      5955      5956      5957      5958      5959      5960
$ ... 1013 like lines cut
*END