*KEYWORD_ID
DED
*PARAMETER
Rboltz    5.6704E-14
*PARAMETER
Rambient       300.0
*PARAMETER
Rabszero         0.0
*TOOL_FILE
./part001_LP500_SSp8_H1.12_SSt4_LH0.8/toolpath.crs
*GAUSS_LASER
500.0 1.12 0.4
*SCALAR_OUT
temp
solid_rate
theta_hist
nid_true
*CONTROL_TERMINATION
$$  ENDTIM    ENDCYC     DTMIN    ENDENG    ENDMAS
   274.3386166372668 
*CONTROL_TIMESTEP
$$  DTINIT    TSSFAC      ISDO    TSLIMT     DT2MS      LCTM     EROD       E     MSIST
    1.0E-2       1.0
*CONTROL_SOLUTION
$$    SOLN
         0
*DATABASE_NODOUT
$$      DT    BINARY      LCUR      IOPT      DTHF     BINHF
    10.000         0
*MAT_THERMAL_GRADED_TD
$HMNAME MATS     1GRADED_POSITION
          1       2   0.00819   1533.0   1609.0   270.0   0.00440   1878.0   1928.0   286.0
./materials/IN718_cp.txt
./materials/IN718_cond.txt
./materials/TI64_cp.txt
./materials/TI64_cond.txt
*MAT_THERMAL_ISOTROPIC_TD
$HMNAME MATS       2MATT1_2
         2   0.00440   1878   1928     286
./materials/TI64_cp.txt
./materials/TI64_cond.txt
*PART
$HWCOLOR COMPS       1       3
Substrate
         1         0         1
$HWCOLOR COMPS       2       4
Build
         2         0         2
*LOAD_NODE_SET
$HMNAME LOADCOLS       1LoadNode_1
         3         1               300.0
$	 moving flux
         2         5                 0.0
$	 Radiation
         2         4                 0.2
$	 convection
         2         3             0.00005
*INITIAL_TEMPERATURE_SET
$HMNAME LOADCOLS       1InitialTemp_1
$HWCOLOR LOADCOLS       1       3
         1     300.0
    *DEFINE_CURVE
         1                 1.0       1.0
     100000.00000000       2051.00000000
     100000.00000000       1972.00000000
     100000.00000000       1337.00000000
     100000.00000000       1338.00000000
     100000.00000000        404.00000000
     100000.00000000       1342.00000000
     100000.00000000       1828.00000000
     100000.00000000        114.00000000
     100000.00000000        258.00000000
     100000.00000000        259.00000000
     100000.00000000        784.00000000
     100000.00000000        785.00000000
     100000.00000000        786.00000000
     100000.00000000       1210.00000000
     100000.00000000        890.00000000
     100000.00000000        889.00000000
     100000.00000000       2118.00000000
     100000.00000000       1784.00000000
     100000.00000000         73.00000000
$ ... 2552 like lines cut
*ELEMENT_COMPOSITION
         1
          0.18677049          0.81322951                   1
          0.13340424          0.86659576                   2
          0.19748618          0.80251382                   3
          0.12590621          0.87409379                   4
          0.12220745          0.87779255                   5
          0.11713729          0.88286271                   6
          0.10962952          0.89037048                   7
          0.26411006          0.73588994                   8
          0.22240951          0.77759049                   9
          0.05512837          0.94487163                  10
          0.05314924          0.94685076                  11
          0.05358869          0.94641131                  12
          0.05759548          0.94240452                  13
          0.06296068          0.93703932                  14
          0.08981159          0.91018841                  15
          0.23479032          0.76520968                  16
          0.25008749          0.74991251                  17
          0.25065510          0.74934490                  18
          0.25173456          0.74826544                  19
$ ... 2552 like lines cut
*NODE
$#   nid               x               y               z      tc      rc
       1        7.035000      -18.000000        0.000000       0       0
       2       11.130000      -18.000000        0.000000       0       0
       3       11.130000       14.760000        0.000000       0       0
       4        7.035000       14.760000        0.000000       0       0
       5       -7.035000      -18.000000        0.000000       0       0
       6      -11.130000      -18.000000        0.000000       0       0
       7       -9.082500      -15.112500        0.000000       0       0
       8      -11.970000      -18.000000        0.000000       0       0
       9       -9.082500      -20.887501        0.000000       0       0
      10        9.082500      -20.887501        0.000000       0       0
      11        9.082500      -15.112500        0.000000       0       0
      12        4.200000      -15.112500        0.000000       0       0
      13        2.100000      -13.012500        0.000000       0       0
      14        2.100000        9.772500        0.000000       0       0
      15        4.200000       11.872500        0.000000       0       0
      16        9.082500       11.872500        0.000000       0       0
      17        9.082500       17.647499        0.000000       0       0
      18       -9.082500       17.647499        0.000000       0       0
      19      -11.970000       14.760000        0.000000       0       0
      20       -9.082500       11.872500        0.000000       0       0
$ ... 20979 like lines cut
*ELEMENT_SOLID
$#   eid     pid      n1      n2      n3      n4      n5      n6      n7      n8
       1       1    1299    1323    1022     777    9503    9527    9226    8981
       2       1    1408    1221    1177     776    9612    9425    9381    8980
       3       1    1443    1239     762    1460    9647    9443    8966    9664
       4       1    1108    1032     774    1139    9312    9236    8978    9343
       5       1    1106    1033     773    1137    9310    9237    8977    9341
       6       1    1219    1184     772    1273    9423    9388    8976    9477
       7       1    1111    1034     770    1141    9315    9238    8974    9345
       8       1     767    1362    1024    1094    8971    9566    9228    9298
       9       1      89    1225    1011       5    2567    9429    9215     355
      10       1      91    1001     963    1365    2569    9205    9167    9569
      11       1     967    1371    1365     963    9171    9575    9569    9167
      12       1     963     116     117     967    9167    2482    2483    9171
      13       1     115    1001    1310       9    2481    9205    9514     352
      14       1     113    1308      94     112    2534    9512    2572    2533
      15       1      95     111     112      94    2573    2532    2533    2572
      16       1     110      96       6       8    2531    2574     358     354
      17       1       6      97     109       8     358    2551    2545     354
      18       1     108     109      97      98    2544    2545    2551    2552
      19       1      98      99     107     108    2552    2553    2543    2544
      20       1     106     107      99    1303    2542    2543    2553    9507
$ ... 16827 like lines cut
*SET_NODE_LIST
$#     sid       da1       da2       da3       da4    solver
         1
$#    nid1      nid2      nid3      nid4      nid5      nid6      nid7      nid8
         1         2         3         4         5         6         7         8
         9        10        11        12        13        14        15        16
        17        18        19        20        21        22        23        24
        25        26        27        28        29        30        31        32
        33        34        35        36        37        38        39        40
        41        42        43        44        45        46        47        48
        49        50        51        52        53        54        55        56
        57        58        59        60        61        62        63        64
        65        66        67        68        69        70        71        72
        73        74        75        76        77        78        79        80
        81        82        83        84        85        86        87        88
        89        90        91        92        93        94        95        96
        97        98        99       100       101       102       103       104
       105       106       107       108       109       110       111       112
       113       114       115       116       117       118       119       120
       121       122       123       124       125       126       127       128
       129       130       131       132       133       134       135       136
       137       138       139       140       141       142       143       144
       145       146       147       148       149       150       151       152
       153       154       155       156       157       158       159       160
$ ... 2605 like lines cut
*SET_NODE_LIST
$#     sid       da1       da2       da3       da4    solver
         2
$#    nid1      nid2      nid3      nid4      nid5      nid6      nid7      nid8
         1         2         3         4         5         6         7         8
         9        10        11        12        13        14        15        16
        17        18        19        20        21        22        23        24
        25        26        27        28        29        30        31        32
        33        34        35        36        37        38        39        40
        41        42        43        44        45        46        47        48
        49        50        51        52        53        54        57        58
        59        60        61        62        63        64        65        66
        67        68        69        70        71        72        73        74
        75        76        77        78        79        80        81        82
        83        84        85        86        87        88        89        90
        91        92        93        94        95        96        97        98
        99       100       101       102       103       104       105       106
       107       108       109       110       111       112       113       114
       115       116       117       118       119       120       121       122
       123       124       125       126       127       128       129       130
       131       132       133       134       135       136       137       138
       139       140       141       142       143       144       145       146
       147       148       149       150       151       152       153       154
       155       156       157       158       159       160       161       162
$ ... 805 like lines cut
*SET_NODE_LIST
$#     sid       da1       da2       da3       da4    solver
         3
$#    nid1      nid2      nid3      nid4      nid5      nid6      nid7      nid8
        55        56       699       700       701       702       703       704
       705       706       707       708       709       710       711       712
       713       714       715       716       717       718       719       720
       721       722       723       724       725       726       727       728
       729       730       731       732       733       734       735       736
       737       738       739       740       741       742       743       744
       745       746       747       748       749       750       751       752
       753       754       755       756       757       758      5244      5245
      5246      5247      5248      5249      5250      5251      5252      5253
      5254      5255      5256      5257      5258      5259      5260      5261
      5262      5263      5264      5265      5266      5267      5268      5269
      5270      5271      5272      5273      5274      5275      5276      5277
      5278      5279      5280      5281      5282      5283      5284      5285
      5286      5287      5288      5289      5290      5291      5292      5293
      5294      5295      5296      5297      5298      5299      5300      5301
      5302      5303      5304      5305      5306      5307      5308      5309
      5310      5311      5312      5313      5314      5315      5316      5317
      5318      5319      5320      5321      5322      5323      5324      5325
      5326      5327      5328      5329      5330      5331      5332      5333
      5334      5335      5336      5337      5338      5339      5340      5341
$ ... 431 like lines cut
*SET_SOLID
$#     sid    solver
         1MECH
$#      k1        k2        k3        k4        k5        k6        k7        k8
         1         2         3         4         5         6         7         8
         9        10        11        12        13        14        15        16
        17        18        19        20        21        22        23        24
        25        26        27        28        29        30        31        32
        33        34        35        36        37        38        39        40
        41        42        43        44        45        46        47        48
        49        50        51        52        53        54        55        56
        57        58        59        60        61        62        63        64
        65        66        67        68        69        70        71        72
        73        74        75        76        77        78        79        80
        81        82        83        84        85        86        87        88
        89        90        91        92        93        94        95        96
        97        98        99       100       101       102       103       104
       105       106       107       108       109       110       111       112
       113       114       115       116       117       118       119       120
       121       122       123       124       125       126       127       128
       129       130       131       132       133       134       135       136
       137       138       139       140       141       142       143       144
       145       146       147       148       149       150       151       152
       153       154       155       156       157       158       159       160
$ ... 302 like lines cut
*SET_SOLID
$#     sid    solver
         2MECH
$#      k1        k2        k3        k4        k5        k6        k7        k8
      2572      2573      2574      2575      2576      2577      2578      2579
      2580      2581      2582      2583      2584      2585      2586      2587
      2588      2589      2590      2591      2592      2593      2594      2595
      2596      2597      2598      2599      2600      2601      2602      2603
      2604      2605      2606      2607      2608      2609      2610      2611
      2612      2613      2614      2615      2616      2617      2618      2619
      2620      2621      2622      2623      2624      2625      2626      2627
      2628      2629      2630      2631      2632      2633      2634      2635
      2636      2637      2638      2639      2640      2641      2642      2643
      2644      2645      2646      2647      2648      2649      2650      2651
      2652      2653      2654      2655      2656      2657      2658      2659
      2660      2661      2662      2663      2664      2665      2666      2667
      2668      2669      2670      2671      2672      2673      2674      2675
      2676      2677      2678      2679      2680      2681      2682      2683
      2684      2685      2686      2687      2688      2689      2690      2691
      2692      2693      2694      2695      2696      2697      2698      2699
      2700      2701      2702      2703      2704      2705      2706      2707
      2708      2709      2710      2711      2712      2713      2714      2715
      2716      2717      2718      2719      2720      2721      2722      2723
      2724      2725      2726      2727      2728      2729      2730      2731
$ ... 1765 like lines cut
*END