*KEYWORD_ID
DED
*PARAMETER
Rboltz    5.6704E-14
*PARAMETER
Rambient       300.0
*PARAMETER
Rabszero         0.0
*TOOL_FILE
./part005_LP1000_SSp8_H1.12_SSt4_LH1.0/toolpath.crs
*GAUSS_LASER
1000.0 1.12 0.4
*SCALAR_OUT
temp
solid_rate
theta_hist
nid_true
*CONTROL_TERMINATION
$$  ENDTIM    ENDCYC     DTMIN    ENDENG    ENDMAS
   1000.0 
*CONTROL_TIMESTEP
$$  DTINIT    TSSFAC      ISDO    TSLIMT     DT2MS      LCTM     EROD       E     MSIST
    1.0E-2       1.0
*CONTROL_SOLUTION
$$    SOLN
         0
*DATABASE_NODOUT
$$      DT    BINARY      LCUR      IOPT      DTHF     BINHF
    10.000         0
*MAT_THERMAL_ISOTROPIC_TD
$HMNAME MATS       1MATT1_1
         1   0.00819   1533   1609     270
./materials/IN718_cp.txt
./materials/IN718_cond.txt
*MAT_THERMAL_ISOTROPIC_TD
$HMNAME MATS       2MATT1_2
         2   0.00440   1878   1928     286
./materials/TI64_cp.txt
./materials/TI64_cond.txt
*PART
$HWCOLOR COMPS       1       3
Substrate
         1         0         1
$HWCOLOR COMPS       2       4
Build
         2         0         2
*LOAD_NODE_SET
$HMNAME LOADCOLS       1LoadNode_1
         3         1               300.0
$	 moving flux
         2         5                 0.0
$	 Radiation
         2         4                 0.2
$	 convection
         2         3             0.00005
*INITIAL_TEMPERATURE_SET
$HMNAME LOADCOLS       1InitialTemp_1
$HWCOLOR LOADCOLS       1       3
         1     300.0
    *DEFINE_CURVE
         1                 1.0       1.0
          2.58198142         94.00000000
          3.15409104        311.00000000
          3.19132333          9.00000000
          3.31543095         99.00000000
          3.34025248         10.00000000
          3.93431628         11.00000000
          3.93431628         96.00000000
          4.04630816        121.00000000
          4.19563066         95.00000000
          4.20807421        123.00000000
          4.36984025         98.00000000
          4.86111098          8.00000000
          4.94881115        194.00000000
          4.98639693        760.00000000
          5.02398272        231.00000000
          5.12421148        399.00000000
          5.13674007        234.00000000
          5.21191164        192.00000000
          5.24949742        106.00000000
$ ... 13224 like lines cut
*NODE
$#   nid               x               y               z      tc      rc
       1        5.584310        3.739810        0.000000       0       0
       2        5.584310       29.318516        0.000000       0       0
       3      -11.415690       29.318516        0.000000       0       0
       4      -11.415690        3.739810        0.000000       0       0
       5       -5.831380        0.000000        0.000000       0       0
       6       -5.831380      -11.080916        0.000000       0       0
       7       -2.915690      -16.489029        0.000000       0       0
       8        0.000000      -11.080916        0.000000       0       0
       9        0.000000        0.000000        0.000000       0       0
      10        5.584310       29.318516       17.000000       0       0
      11      -11.415690       29.318516       17.000000       0       0
      12      -11.415690        3.739810       17.000000       0       0
      13       -5.831380        0.000000       17.000000       0       0
      14       -5.831380      -11.080916       17.000000       0       0
      15       -2.915690      -16.489029       17.000000       0       0
      16        0.000000      -11.080916       17.000000       0       0
      17        0.000000        0.000000       17.000000       0       0
      18        5.584310        3.739810       17.000000       0       0
      19      -50.000000        0.000000        0.000000       0       0
      20       50.000000        0.000000        0.000000       0       0
$ ... 25672 like lines cut
*ELEMENT_SOLID
$#   eid     pid      n1      n2      n3      n4      n5      n6      n7      n8
       1       1      79     572     573      78    2707    7591    7592    2706
       2       1      87     564     565      86    2715    7583    7584    2714
       3       1     587      95       5     680    7606    2602     231    7699
       4       1     607     128     129     606    7626    2063    2064    7625
       5       1     126     608     609     125    2061    7627    7628    2060
       6       1     105     106     529     595    2414    2415    7548    7614
       7       1     523       8     118     614    7542     183    2053    7633
       8       1     524     116     117     604    7543    2248    2249    7623
       9       1     115     605     525     114    2247    7624    7544    2246
      10       1     112     721     526     111    2329    7740    7545    2328
      11       1     111     526     602     110    2328    7545    7621    2327
      12       1     108     603     528       6    2325    7622    7547     215
      13       1     596     120     121     612    7615    2055    2056    7631
      14       1     522     597     103     104    7541    7616    2412    2413
      15       1     100     101     598     599    2409    2410    7617    7618
      16       1      96      97     601     531    2405    2406    7620    7550
      17       1      24      25     554     648    3350    3351    7573    7667
      18       1      48       2      49     532    3374     279    3093    7551
      19       1     561     562      51      52    7580    7581    3095    3096
      20       1      46      47     533     534    3372    3373    7552    7553
$ ... 22211 like lines cut
*SET_NODE_LIST
$#     sid       da1       da2       da3       da4    solver
         1
$#    nid1      nid2      nid3      nid4      nid5      nid6      nid7      nid8
         1         2         3         4         5         6         7         8
         9        10        11        12        13        14        15        16
        17        18        19        20        21        22        23        24
        25        26        27        28        29        30        31        32
        33        34        35        36        37        38        39        40
        41        42        43        44        45        46        47        48
        49        50        51        52        53        54        55        56
        57        58        59        60        61        62        63        64
        65        66        67        68        69        70        71        72
        73        74        75        76        77        78        79        80
        81        82        83        84        85        86        87        88
        89        90        91        92        93        94        95        96
        97        98        99       100       101       102       103       104
       105       106       107       108       109       110       111       112
       113       114       115       116       117       118       119       120
       121       122       123       124       125       126       127       128
       129       130       131       132       133       134       135       136
       137       138       139       140       141       142       143       144
       145       146       147       148       149       150       151       152
       153       154       155       156       157       158       159       160
$ ... 3192 like lines cut
*SET_NODE_LIST
$#     sid       da1       da2       da3       da4    solver
         2
$#    nid1      nid2      nid3      nid4      nid5      nid6      nid7      nid8
         1         2         3         4         5         6         7         8
         9        10        11        12        13        14        15        16
        17        18        19        20        23        24        25        26
        27        28        29        30        31        32        33        34
        35        36        37        38        39        40        41        42
        43        44        45        46        47        48        49        50
        51        52        53        54        55        56        57        58
        59        60        61        62        63        64        65        66
        67        68        69        70        71        72        73        74
        75        76        77        78        79        80        81        82
        83        84        85        86        87        88        89        90
        91        92        93        94        95        96        97        98
        99       100       101       102       103       104       105       106
       107       108       109       110       111       112       113       114
       115       116       117       118       119       120       121       122
       123       124       125       126       127       128       129       130
       131       132       133       134       135       136       137       138
       139       140       141       142       143       144       145       146
       147       148       149       150       151       152       153       154
       155       156       157       158       159       160       161       162
$ ... 2052 like lines cut

*SET_NODE_LIST
$#     sid       da1       da2       da3       da4    solver
         3
$#    nid1      nid2      nid3      nid4      nid5      nid6      nid7      nid8
        21        22       459       460       461       462       463       464
       465       466       467       468       469       470       471       472
       473       474       475       476       477       478       479       480
       481       482       483       484       485       486       487       488
       489       490       491       492       493       494       495       496
       497       498       499       500       501       502       503       504
       505       506       507       508       509       510       511       512
       513       514       515       516       517       518      5141      5142
      5143      5144      5145      5146      5147      5148      5149      5150
      5151      5152      5153      5154      5155      5156      5157      5158
      5159      5160      5161      5162      5163      5164      5165      5166
      5167      5168      5169      5170      5171      5172      5173      5174
      5175      5176      5177      5178      5179      5180      5181      5182
      5183      5184      5185      5186      5187      5188      5189      5190
      5191      5192      5193      5194      5195      5196      5197      5198
      5199      5200      5201      5202      5203      5204      5205      5206
      5207      5208      5209      5210      5211      5212      5213      5214
      5215      5216      5217      5218      5219      5220      5221      5222
      5223      5224      5225      5226      5227      5228      5229      5230
      5231      5232      5233      5234      5235      5236      5237      5238
$ ... 265 like lines cut
*SET_SOLID
$#     sid    solver
         1MECH
$#      k1        k2        k3        k4        k5        k6        k7        k8
         1         2         3         4         5         6         7         8
         9        10        11        12        13        14        15        16
        17        18        19        20        21        22        23        24
        25        26        27        28        29        30        31        32
        33        34        35        36        37        38        39        40
        41        42        43        44        45        46        47        48
        49        50        51        52        53        54        55        56
        57        58        59        60        61        62        63        64
        65        66        67        68        69        70        71        72
        73        74        75        76        77        78        79        80
        81        82        83        84        85        86        87        88
        89        90        91        92        93        94        95        96
        97        98        99       100       101       102       103       104
       105       106       107       108       109       110       111       112
       113       114       115       116       117       118       119       120
       121       122       123       124       125       126       127       128
       129       130       131       132       133       134       135       136
       137       138       139       140       141       142       143       144
       145       146       147       148       149       150       151       152
       153       154       155       156       157       158       159       160
$ ... 1636 like lines cut
*SET_SOLID
$#     sid    solver
         2MECH
$#      k1        k2        k3        k4        k5        k6        k7        k8
     13244     13245     13246     13247     13248     13249     13250     13251
     13252     13253     13254     13255     13256     13257     13258     13259
     13260     13261     13262     13263     13264     13265     13266     13267
     13268     13269     13270     13271     13272     13273     13274     13275
     13276     13277     13278     13279     13280     13281     13282     13283
     13284     13285     13286     13287     13288     13289     13290     13291
     13292     13293     13294     13295     13296     13297     13298     13299
     13300     13301     13302     13303     13304     13305     13306     13307
     13308     13309     13310     13311     13312     13313     13314     13315
     13316     13317     13318     13319     13320     13321     13322     13323
     13324     13325     13326     13327     13328     13329     13330     13331
     13332     13333     13334     13335     13336     13337     13338     13339
     13340     13341     13342     13343     13344     13345     13346     13347
     13348     13349     13350     13351     13352     13353     13354     13355
     13356     13357     13358     13359     13360     13361     13362     13363
     13364     13365     13366     13367     13368     13369     13370     13371
     13372     13373     13374     13375     13376     13377     13378     13379
     13380     13381     13382     13383     13384     13385     13386     13387
     13388     13389     13390     13391     13392     13393     13394     13395
     13396     13397     13398     13399     13400     13401     13402     13403
$ ... 1104 like lines cut
*END