*KEYWORD_ID
DED
*PARAMETER
Rboltz    5.6704E-14
*PARAMETER
Rambient       300.0
*PARAMETER
Rabszero         0.0
*TOOL_FILE
toolpath_off.crs
*GAUSS_LASER
250.0 0.5 0.4
*SCALAR_OUT
temp
solid_rate
theta_hist
nid_true
*CONTROL_TERMINATION
$$  ENDTIM    ENDCYC     DTMIN    ENDENG    ENDMAS
   20.0
*CONTROL_TIMESTEP
$$  DTINIT    TSSFAC      ISDO    TSLIMT     DT2MS      LCTM     EROD       E     MSIST
    5.0E-4       1.0
*CONTROL_SOLUTION
$$    SOLN
         0
*DATABASE_NODOUT
$$      DT    BINARY      LCUR      IOPT      DTHF     BINHF
    10.000         0
*MAT_THERMAL_GRADED_TD
$HMNAME MATS     202GRADED_4MAT_IN625_SS316_HA25_MCrAlY
        202       4   0.00819   1533.0   1609.0   270.0   0.00787   1693.0   1733.0   270.0   0.00451   1933.0   1941.0   295.0   0.00270   930.0   933.0   397.0
../0_properties/IN718_cp.txt
../0_properties/IN718_cond.txt
../data/materials/1018_cp.txt
../data/materials/1018_cond.txt
../0_properties/CPTi_cp.txt
../0_properties/CPTi_cond.txt
../0_properties/Al_cp.txt
../0_properties/Al_cond.txt
*PART
$HWCOLOR COMPS     202       5
Imported_Part_Graded_Rowan_4Material_Composition
        202         0       202
*EXTERNAL_MESH
sol_100.vtu       202
*LOAD_NODE_SET
$HMNAME LOADCOLS       1LoadNode_1
$	 Radiation
         2         4                 0.2
$	 convection
         2         3             0.00002
*ELEMENT_COMPOSITION
       202
          0.02805408          0.96355075          0.00425899          0.00413619                   1
          0.03032326          0.96201140          0.00392287          0.00374248                   2
          0.03067377          0.96140444          0.00405052          0.00387127                   3
          0.01413337          0.97762239          0.00388920          0.00435505                   4
          0.01370998          0.97857547          0.00380049          0.00391407                   5
          0.02710488          0.96456188          0.00417774          0.00415553                   6
          0.01342908          0.97720087          0.00490341          0.00446655                   7
          0.01325294          0.97488749          0.00529156          0.00656802                   8
          0.02651957          0.95992905          0.00653066          0.00702080                   9
          0.02617364          0.95937330          0.00689226          0.00756083                  10
          0.02585980          0.95884377          0.00722109          0.00807536                  11
          0.02558881          0.95832253          0.00752166          0.00856705                  12
          0.02533666          0.95784503          0.00779110          0.00902722                  13
          0.02508730          0.95741642          0.00803545          0.00946089                  14
          0.02485617          0.95702994          0.00825276          0.00986117                  15
          0.02464944          0.95667040          0.00844786          0.01023229                  16
          0.02445662          0.95634788          0.00862192          0.01057356                  17
          0.02425579          0.95608622          0.00877529          0.01088268                  18
          0.02407555          0.95585835          0.00890819          0.01115793                  19
$ ... 50317 like lines cut
*END
