*KEYWORD_ID
DED
*PARAMETER
Rboltz    5.6704E-14
*PARAMETER
Rambient       300.0
*PARAMETER
Rabszero         0.0
*TOOL_FILE
./part003_LP800_SSp7_H1.68_SSt0_LH0.8/toolpath.crs
*GAUSS_LASER
800.0 1.12 0.4
*SCALAR_OUT
temp
solid_rate
theta_hist
nid_true
*CONTROL_TERMINATION
$$  ENDTIM    ENDCYC     DTMIN    ENDENG    ENDMAS
   1000.0 
*CONTROL_TIMESTEP
$$  DTINIT    TSSFAC      ISDO    TSLIMT     DT2MS      LCTM     EROD       E     MSIST
    1.0E-2       1.0
*CONTROL_SOLUTION
$$    SOLN
         0
*DATABASE_NODOUT
$$      DT    BINARY      LCUR      IOPT      DTHF     BINHF
    10.000         0
*MAT_THERMAL_GRADED_TD
$HMNAME MATS     1GRADED_POSITION
          1       2   0.00819   1533.0   1609.0   270.0   0.00440   1878.0   1928.0   286.0
./materials/IN718_cp.txt
./materials/IN718_cond.txt
./materials/TI64_cp.txt
./materials/TI64_cond.txt
*MAT_THERMAL_ISOTROPIC_TD
$HMNAME MATS       2MATT1_2
         2   0.00440   1878   1928     286
./materials/TI64_cp.txt
./materials/TI64_cond.txt
*PART
$HWCOLOR COMPS       1       3
Substrate
         1         0         1
$HWCOLOR COMPS       2       4
Build
         2         0         2
*LOAD_NODE_SET
$HMNAME LOADCOLS       1LoadNode_1
         3         1               300.0
$	 moving flux
         2         5                 0.0
$	 Radiation
         2         4                 0.2
$	 convection
         2         3             0.00005
*INITIAL_TEMPERATURE_SET
$HMNAME LOADCOLS       1InitialTemp_1
$HWCOLOR LOADCOLS       1       3
         1     300.0
    *DEFINE_CURVE
         1                 1.0       1.0
     100000.00000000          1.00000000
     100000.00000000      18724.00000000
     100000.00000000      53196.00000000
     100000.00000000      18722.00000000
     100000.00000000      53197.00000000
     100000.00000000      53198.00000000
     100000.00000000      53199.00000000
     100000.00000000      53200.00000000
     100000.00000000      53201.00000000
     100000.00000000      53202.00000000
     100000.00000000      53203.00000000
     100000.00000000      53204.00000000
     100000.00000000      53205.00000000
     100000.00000000      53206.00000000
     100000.00000000      53207.00000000
     100000.00000000      53208.00000000
     100000.00000000      53195.00000000
     100000.00000000      53209.00000000
     100000.00000000      53194.00000000
$ ... 55931 like lines cut
*ELEMENT_COMPOSITION
         1
          0.34652651          0.65347349                   1
          0.32418677          0.67581323                   2
          0.26902475          0.73097525                   3
          0.73694341          0.26305659                   4
          0.32630963          0.67369037                   5
          0.34164709          0.65835291                   6
          0.71025656          0.28974344                   7
          0.60853012          0.39146988                   8
          0.26235363          0.73764637                   9
          0.45105660          0.54894340                  10
          0.74905226          0.25094774                  11
          0.49297515          0.50702485                  12
          0.30715562          0.69284438                  13
          0.41684196          0.58315804                  14
          0.74312107          0.25687893                  15
          0.71887834          0.28112166                  16
          0.57071905          0.42928095                  17
          0.43742062          0.56257938                  18
          0.74525020          0.25474980                  19
$ ... 55931 like lines cut
*NODE
$#   nid               x               y               z      tc      rc
       1      -10.629921       27.000000        0.000000       0       0
       2       -1.578107       16.041704        0.000000       0       0
       3      -10.629921        5.083409        0.000000       0       0
       4      -10.629921      -27.000000        0.000000       0       0
       5       16.370079      -27.000000        0.000000       0       0
       6       16.370079        5.083409        0.000000       0       0
       7        7.318265       16.041704        0.000000       0       0
       8       16.370079       27.000000        0.000000       0       0
       9      -10.629921        5.083409       27.000000       0       0
      10      -10.629921      -27.000000       27.000000       0       0
      11       16.370079      -27.000000       27.000000       0       0
      12       16.370079        5.083409       27.000000       0       0
      13        7.318265       16.041704       27.000000       0       0
      14       16.370079       27.000000       27.000000       0       0
      15      -10.629921       27.000000       27.000000       0       0
      16       -1.578107       16.041704       27.000000       0       0
      17      -50.000000        0.000000        0.000000       0       0
      18       50.000000        0.000000        0.000000       0       0
      19      -50.000000        0.000000      -20.000000       0       0
      20       50.000000        0.000000      -20.000000       0       0
$ ... 77485 like lines cut
*ELEMENT_SOLID
$#   eid     pid      n1      n2      n3      n4      n5      n6      n7      n8
       1       1    1091      21      22    1104   15605    9308    9309   15618
       2       1    1232    1102    1099     758   15746   15616   15613   15272
       3       1    2262    1289    1102    1232   16776   15803   15616   15746
       4       1     204    1237    1233     203    4315   15751   15747    4314
       5       1    1238     760    1297    1214   15752   15274   15811   15728
       6       1    1224     761    1298    1213   15738   15275   15812   15727
       7       1    1212    1225     762    1299   15726   15739   15276   15813
       8       1    1211    1226     763    1300   15725   15740   15277   15814
       9       1    1210    1227     764    1301   15724   15741   15278   15815
      10       1    1209    1228     765    1302   15723   15742   15279   15816
      11       1    1208    1229     766    1303   15722   15743   15280   15817
      12       1    1207    1230     767    1477   15721   15744   15281   15991
      13       1    1206    1207    1477     768   15720   15721   15991   15282
      14       1    1242    1231    1304    2267   15756   15745   15818   16781
      15       1    1117    1113     176     177   15631   15627    5143    5144
      16       1     181    2252    1118     180    4292   16766   15632    4291
      17       1     180    1118     179       8    4291   15632    5146     266
      18       1    1105      25      26    1100   15619    9312    9313   15614
      19       1     779      28      29    1364   15293    9315    9316   15878
      20       1    1101     780    1461    1364   15615   15294   15975   15878
$ ... 70670 like lines cut
*SET_NODE_LIST
$#     sid       da1       da2       da3       da4    solver
         1
$#    nid1      nid2      nid3      nid4      nid5      nid6      nid7      nid8
         1         2         3         4         5         6         7         8
         9        10        11        12        13        14        15        16
        17        18        19        20        21        22        23        24
        25        26        27        28        29        30        31        32
        33        34        35        36        37        38        39        40
        41        42        43        44        45        46        47        48
        49        50        51        52        53        54        55        56
        57        58        59        60        61        62        63        64
        65        66        67        68        69        70        71        72
        73        74        75        76        77        78        79        80
        81        82        83        84        85        86        87        88
        89        90        91        92        93        94        95        96
        97        98        99       100       101       102       103       104
       105       106       107       108       109       110       111       112
       113       114       115       116       117       118       119       120
       121       122       123       124       125       126       127       128
       129       130       131       132       133       134       135       136
       137       138       139       140       141       142       143       144
       145       146       147       148       149       150       151       152
       153       154       155       156       157       158       159       160
$ ... 9669 like lines cut
*SET_NODE_LIST
$#     sid       da1       da2       da3       da4    solver
         2
$#    nid1      nid2      nid3      nid4      nid5      nid6      nid7      nid8
         1         2         3         4         5         6         7         8
         9        10        11        12        13        14        15        16
        17        18        21        22        23        24        25        26
        27        28        29        30        31        32        33        34
        35        36        37        38        39        40        41        42
        43        44        45        46        47        48        49        50
        51        52        53        54        55        56        57        58
        59        60        61        62        63        64        65        66
        67        68        69        70        71        72        73        74
        75        76        77        78        79        80        81        82
        83        84        85        86        87        88        89        90
        91        92        93        94        95        96        97        98
        99       100       101       102       103       104       105       106
       107       108       109       110       111       112       113       114
       115       116       117       118       119       120       121       122
       123       124       125       126       127       128       129       130
       131       132       133       134       135       136       137       138
       139       140       141       142       143       144       145       146
       147       148       149       150       151       152       153       154
       155       156       157       158       159       160       161       162
$ ... 7810 like lines cut
*SET_NODE_LIST
$#     sid       da1       da2       da3       da4    solver
         3
$#    nid1      nid2      nid3      nid4      nid5      nid6      nid7      nid8
        19        20       695       696       697       698       699       700
       701       702       703       704       705       706       707       708
       709       710       711       712       713       714       715       716
       717       718       719       720       721       722       723       724
       725       726       727       728       729       730       731       732
       733       734       735       736       737       738       739       740
       741       742       743       744       745       746       747       748
       749       750       751       752       753       754     11434     11435
     11436     11437     11438     11439     11440     11441     11442     11443
     11444     11445     11446     11447     11448     11449     11450     11451
     11452     11453     11454     11455     11456     11457     11458     11459
     11460     11461     11462     11463     11464     11465     11466     11467
     11468     11469     11470     11471     11472     11473     11474     11475
     11476     11477     11478     11479     11480     11481     11482     11483
     11484     11485     11486     11487     11488     11489     11490     11491
     11492     11493     11494     11495     11496     11497     11498     11499
     11500     11501     11502     11503     11504     11505     11506     11507
     11508     11509     11510     11511     11512     11513     11514     11515
     11516     11517     11518     11519     11520     11521     11522     11523
     11524     11525     11526     11527     11528     11529     11530     11531
$ ... 445 like lines cut
*SET_SOLID
$#     sid    solver
         1MECH
$#      k1        k2        k3        k4        k5        k6        k7        k8
         1         2         3         4         5         6         7         8
         9        10        11        12        13        14        15        16
        17        18        19        20        21        22        23        24
        25        26        27        28        29        30        31        32
        33        34        35        36        37        38        39        40
        41        42        43        44        45        46        47        48
        49        50        51        52        53        54        55        56
        57        58        59        60        61        62        63        64
        65        66        67        68        69        70        71        72
        73        74        75        76        77        78        79        80
        81        82        83        84        85        86        87        88
        89        90        91        92        93        94        95        96
        97        98        99       100       101       102       103       104
       105       106       107       108       109       110       111       112
       113       114       115       116       117       118       119       120
       121       122       123       124       125       126       127       128
       129       130       131       132       133       134       135       136
       137       138       139       140       141       142       143       144
       145       146       147       148       149       150       151       152
       153       154       155       156       157       158       159       160
$ ... 6974 like lines cut
*SET_SOLID
$#     sid    solver
         2MECH
$#      k1        k2        k3        k4        k5        k6        k7        k8
     55951     55952     55953     55954     55955     55956     55957     55958
     55959     55960     55961     55962     55963     55964     55965     55966
     55967     55968     55969     55970     55971     55972     55973     55974
     55975     55976     55977     55978     55979     55980     55981     55982
     55983     55984     55985     55986     55987     55988     55989     55990
     55991     55992     55993     55994     55995     55996     55997     55998
     55999     56000     56001     56002     56003     56004     56005     56006
     56007     56008     56009     56010     56011     56012     56013     56014
     56015     56016     56017     56018     56019     56020     56021     56022
     56023     56024     56025     56026     56027     56028     56029     56030
     56031     56032     56033     56034     56035     56036     56037     56038
     56039     56040     56041     56042     56043     56044     56045     56046
     56047     56048     56049     56050     56051     56052     56053     56054
     56055     56056     56057     56058     56059     56060     56061     56062
     56063     56064     56065     56066     56067     56068     56069     56070
     56071     56072     56073     56074     56075     56076     56077     56078
     56079     56080     56081     56082     56083     56084     56085     56086
     56087     56088     56089     56090     56091     56092     56093     56094
     56095     56096     56097     56098     56099     56100     56101     56102
     56103     56104     56105     56106     56107     56108     56109     56110
$ ... 1823 like lines cut
*END